2
Coordinates from ORCA-job Ag01N0_F E -246.732240280865
  Ag      0.000000      0.000000      0.317712
  F       0.000000      0.000000     -1.659163
2
Coordinates from ORCA-job Ag01N0_F E -246.732269700530
  Ag      0.000000      0.000000      0.319661
  F       0.000000      0.000000     -1.661112
2
Coordinates from ORCA-job Ag01N0_F E -246.732305929142
  Ag      0.000000      0.000000      0.325073
  F       0.000000      0.000000     -1.666524
2
Coordinates from ORCA-job Ag01N0_F E -246.732306051297
  Ag      0.000000      0.000000      0.325292
  F       0.000000      0.000000     -1.666743
2
Coordinates from ORCA-job Ag01N0_F E -246.732305991892
  Ag      0.000000      0.000000      0.325298
  F       0.000000      0.000000     -1.666749
