2
Coordinates from ORCA-job Ag02N0 E -293.834663211441
  Ag      0.000000      0.000000      1.261821
  Ag      0.000000      0.000000     -1.261821
2
Coordinates from ORCA-job Ag02N0 E -293.834686832542
  Ag      0.000000      0.000000      1.263140
  Ag      0.000000      0.000000     -1.263140
2
Coordinates from ORCA-job Ag02N0 E -293.834820295421
  Ag      0.000000      0.000000      1.278118
  Ag      0.000000      0.000000     -1.278118
2
Coordinates from ORCA-job Ag02N0 E -293.834820959418
  Ag      0.000000      0.000000      1.279284
  Ag      0.000000      0.000000     -1.279284
2
Coordinates from ORCA-job Ag02N0 E -293.834820869985
  Ag      0.000000      0.000000      1.279372
  Ag      0.000000      0.000000     -1.279372
