3
Coordinates from ORCA-job Ag03C1_LIN E -440.495333783760
  Ag      0.000000      0.000000      0.000000
  Ag      0.000000      0.000000      2.629319
  Ag      0.000000      0.000000     -2.629319
3
Coordinates from ORCA-job Ag03C1_LIN E -440.495361785285
  Ag     -0.000000     -0.000000     -0.000000
  Ag      0.000000      0.000000      2.631776
  Ag      0.000000      0.000000     -2.631776
3
Coordinates from ORCA-job Ag03C1_LIN E -440.495552672577
  Ag     -0.000000     -0.000000     -0.000000
  Ag      0.000000      0.000000      2.664497
  Ag      0.000000      0.000000     -2.664497
3
Coordinates from ORCA-job Ag03C1_LIN E -440.495554391636
  Ag     -0.000000     -0.000000     -0.000000
  Ag      0.000000      0.000000      2.667392
  Ag      0.000000      0.000000     -2.667391
3
Coordinates from ORCA-job Ag03C1_LIN E -440.495554340841
  Ag     -0.000000     -0.000000     -0.000000
  Ag      0.000000      0.000000      2.667628
  Ag      0.000000      0.000000     -2.667628
