3
Coordinates from ORCA-job Ag03N0_LIN E -440.748187261769
  Ag      0.000000      0.000000      0.000000
  Ag      0.000000      0.000000      2.592532
  Ag      0.000000      0.000000     -2.592532
3
Coordinates from ORCA-job Ag03N0_LIN E -440.748220321379
  Ag      0.000000      0.000000     -0.000000
  Ag     -0.000000     -0.000000      2.595038
  Ag     -0.000000     -0.000000     -2.595038
3
Coordinates from ORCA-job Ag03N0_LIN E -440.748421637769
  Ag      0.000000     -0.000000     -0.000000
  Ag     -0.000000      0.000000      2.625509
  Ag     -0.000000      0.000000     -2.625509
3
Coordinates from ORCA-job Ag03N0_LIN E -440.748422763173
  Ag      0.000000     -0.000000     -0.000000
  Ag     -0.000000      0.000000      2.628037
  Ag     -0.000000      0.000000     -2.628037
3
Coordinates from ORCA-job Ag03N0_LIN E -440.748422565973
  Ag      0.000000     -0.000000     -0.000000
  Ag     -0.000000      0.000000      2.628231
  Ag     -0.000000      0.000000     -2.628231
