3
Coordinates from ORCA-job Ag03C1_D3H E -440.544817544337
  Ag      0.000000      1.529877      0.000000
  Ag      1.324912     -0.764938      0.000000
  Ag     -1.324912     -0.764938      0.000000
3
Coordinates from ORCA-job Ag03C1_D3H E -440.544873878411
  Ag      0.000000      1.531609      0.000000
  Ag      1.326358     -0.765804      0.000000
  Ag     -1.326358     -0.765804      0.000000
3
Coordinates from ORCA-job Ag03C1_D3H E -440.545216510447
  Ag     -0.000000      1.552007      0.000000
  Ag      1.343372     -0.776003      0.000000
  Ag     -1.343372     -0.776003      0.000000
3
Coordinates from ORCA-job Ag03C1_D3H E -440.545220559828
  Ag     -0.000000      1.554007      0.000000
  Ag      1.345032     -0.777003      0.000000
  Ag     -1.345032     -0.777003      0.000000
3
Coordinates from ORCA-job Ag03C1_D3H E -440.545220426136
  Ag     -0.000000      1.554183      0.000000
  Ag      1.345170     -0.777091      0.000000
  Ag     -1.345170     -0.777091      0.000000
