2
Coordinates from ORCA-job Au01N0_F E -235.396259928062
  Au      0.000000      0.000000      0.196853
  F       0.000000      0.000000     -1.727931
2
Coordinates from ORCA-job Au01N0_F E -235.396276778959
  Au      0.000000      0.000000      0.214392
  F       0.000000      0.000000     -1.745470
2
Coordinates from ORCA-job Au01N0_F E -235.396372535833
  Au      0.000000      0.000000      0.206241
  F       0.000000      0.000000     -1.737319
2
Coordinates from ORCA-job Au01N0_F E -235.396372838172
  Au      0.000000      0.000000      0.205796
  F       0.000000      0.000000     -1.736874
2
Coordinates from ORCA-job Au01N0_F E -235.396372891508
  Au      0.000000      0.000000      0.205817
  F       0.000000      0.000000     -1.736895
