2
Coordinates from ORCA-job Au01N0_H E -136.181797495451
  Au      0.000000      0.000000      0.019034
  H       0.000000      0.000000     -1.503691
2
Coordinates from ORCA-job Au01N0_H E -136.181797661491
  Au      0.000000      0.000000      0.024380
  H       0.000000      0.000000     -1.509037
2
Coordinates from ORCA-job Au01N0_H E -136.181807524073
  Au      0.000000      0.000000      0.021791
  H       0.000000      0.000000     -1.506448
2
Coordinates from ORCA-job Au01N0_H E -136.181807462665
  Au      0.000000      0.000000      0.021756
  H       0.000000      0.000000     -1.506413
