3
Coordinates from ORCA-job Au03C1_D3H E -406.578868993829
  Au      0.000000      1.501400     -0.000000
  Au      1.300251     -0.750700     -0.000000
  Au     -1.300251     -0.750700     -0.000000
3
Coordinates from ORCA-job Au03C1_D3H E -406.577635494667
  Au      0.000000      1.554360      0.000000
  Au      1.346042     -0.777180      0.000000
  Au     -1.346043     -0.777180      0.000000
3
Coordinates from ORCA-job Au03C1_D3H E -406.579161406049
  Au      0.000000      1.520901      0.000000
  Au      1.317019     -0.760450      0.000000
  Au     -1.317019     -0.760450      0.000000
3
Coordinates from ORCA-job Au03C1_D3H E -406.579178999682
  Au     -0.000000      1.516424      0.000000
  Au      1.313175     -0.758212      0.000000
  Au     -1.313174     -0.758212      0.000000
3
Coordinates from ORCA-job Au03C1_D3H E -406.579179569860
  Au      0.000000      1.517093      0.000000
  Au      1.313736     -0.758547      0.000000
  Au     -1.313736     -0.758547      0.000000
3
Coordinates from ORCA-job Au03C1_D3H E -406.579179413453
  Au      0.000000      1.517076      0.000000
  Au      1.313732     -0.758538      0.000000
  Au     -1.313732     -0.758538      0.000000
