2
Coordinates from ORCA-job Cu01N0_F E -1740.189945860758
  Cu      0.000000      0.000000      0.412716
  F       0.000000      0.000000     -1.329863
2
Coordinates from ORCA-job Cu01N0_F E -1740.189999359998
  Cu      0.000000      0.000000      0.414896
  F       0.000000      0.000000     -1.332043
2
Coordinates from ORCA-job Cu01N0_F E -1740.190043227273
  Cu      0.000000      0.000000      0.426983
  F       0.000000      0.000000     -1.344130
2
Coordinates from ORCA-job Cu01N0_F E -1740.190027988425
  Cu      0.000000      0.000000      0.428050
  F       0.000000      0.000000     -1.345197
2
Coordinates from ORCA-job Cu01N0_F E -1740.190026341638
  Cu      0.000000      0.000000      0.428134
  F       0.000000      0.000000     -1.345281
