2
Coordinates from ORCA-job Cu02N0 E -3280.701842795391
  Cu      0.000000      0.000000      1.107490
  Cu      0.000000      0.000000     -1.107490
2
Coordinates from ORCA-job Cu02N0 E -3280.701882585291
  Cu      0.000000      0.000000      1.108648
  Cu      0.000000      0.000000     -1.108648
2
Coordinates from ORCA-job Cu02N0 E -3280.702274904336
  Cu      0.000000      0.000000      1.146086
  Cu      0.000000      0.000000     -1.146086
2
Coordinates from ORCA-job Cu02N0 E -3280.702192450773
  Cu      0.000000      0.000000      1.152168
  Cu      0.000000      0.000000     -1.152168
2
Coordinates from ORCA-job Cu02N0 E -3280.702175212440
  Cu      0.000000      0.000000      1.153173
  Cu      0.000000      0.000000     -1.153173
2
Coordinates from ORCA-job Cu02N0 E -3280.702174762925
  Cu      0.000000      0.000000      1.153198
  Cu      0.000000      0.000000     -1.153198
