3
Coordinates from ORCA-job Cu03C1_LIN E -4920.791270736682
  Cu      0.000000      0.000000      0.000000
  Cu      0.000000      0.000000      2.337165
  Cu      0.000000      0.000000     -2.337165
3
Coordinates from ORCA-job Cu03C1_LIN E -4920.791319462472
  Cu      0.000000      0.000000      0.000000
  Cu     -0.000000     -0.000000      2.341096
  Cu     -0.000000     -0.000000     -2.341096
3
Coordinates from ORCA-job Cu03C1_LIN E -4920.790656862694
  Cu      0.000000      0.000000      0.000000
  Cu     -0.000000     -0.000000      2.453351
  Cu     -0.000000     -0.000000     -2.453351
3
Coordinates from ORCA-job Cu03C1_LIN E -4920.789360070223
  Cu      0.000000      0.000000      0.000000
  Cu     -0.000000     -0.000000      2.504078
  Cu     -0.000000     -0.000000     -2.504078
3
Coordinates from ORCA-job Cu03C1_LIN E -4920.788822239102
  Cu      0.000000      0.000000      0.000000
  Cu     -0.000000     -0.000000      2.521096
  Cu     -0.000000     -0.000000     -2.521096
3
Coordinates from ORCA-job Cu03C1_LIN E -4920.788755965115
  Cu      0.000000      0.000000      0.000000
  Cu     -0.000000     -0.000000      2.523096
  Cu     -0.000000     -0.000000     -2.523096
3
Coordinates from ORCA-job Cu03C1_LIN E -4920.788753880476
  Cu      0.000000      0.000000      0.000000
  Cu     -0.000000     -0.000000      2.523161
  Cu     -0.000000     -0.000000     -2.523161
