2
Coordinates from ORCA-job Ag01N0_F E -246.804683247124
  Ag      0.000000      0.000000      0.317712
  F       0.000000      0.000000     -1.659163
2
Coordinates from ORCA-job Ag01N0_F E -246.804693527745
  Ag      0.000000      0.000000      0.318760
  F       0.000000      0.000000     -1.660211
2
Coordinates from ORCA-job Ag01N0_F E -246.804709474382
  Ag      0.000000      0.000000      0.321780
  F       0.000000      0.000000     -1.663231
2
Coordinates from ORCA-job Ag01N0_F E -246.804709593212
  Ag      0.000000      0.000000      0.321845
  F       0.000000      0.000000     -1.663296
