2
Coordinates from ORCA-job Ag02N0 E -293.887947852515
  Ag      0.000000      0.000000      1.261821
  Ag      0.000000      0.000000     -1.261821
2
Coordinates from ORCA-job Ag02N0 E -293.887968405949
  Ag      0.000000      0.000000      1.263031
  Ag      0.000000      0.000000     -1.263031
2
Coordinates from ORCA-job Ag02N0 E -293.888086281830
  Ag      0.000000      0.000000      1.276638
  Ag      0.000000      0.000000     -1.276638
2
Coordinates from ORCA-job Ag02N0 E -293.888087124505
  Ag      0.000000      0.000000      1.277602
  Ag      0.000000      0.000000     -1.277602
2
Coordinates from ORCA-job Ag02N0 E -293.888087136315
  Ag      0.000000      0.000000      1.277670
  Ag      0.000000      0.000000     -1.277670
