3
Coordinates from ORCA-job Ag03N0_D3H E -440.832315355487
  Ag      0.000000      1.533951     -0.000000
  Ag      1.328441     -0.766976      0.000000
  Ag     -1.328441     -0.766976     -0.000000
3
Coordinates from ORCA-job Ag03N0_D3H E -440.832572128200
  Ag     -0.000000      1.539814      0.000000
  Ag      1.325530     -0.769908      0.000000
  Ag     -1.325530     -0.769908      0.000000
3
Coordinates from ORCA-job Ag03N0_D3H E -440.834360263552
  Ag     -0.000001      1.614078      0.000000
  Ag      1.287710     -0.807040      0.000000
  Ag     -1.287709     -0.807039      0.000000
3
Coordinates from ORCA-job Ag03N0_D3H E -440.834395507457
  Ag     -0.000001      1.623944      0.000000
  Ag      1.283319     -0.811973      0.000000
  Ag     -1.283319     -0.811972      0.000000
3
Coordinates from ORCA-job Ag03N0_D3H E -440.834404255322
  Ag     -0.000001      1.626296      0.000000
  Ag      1.283134     -0.813149      0.000000
  Ag     -1.283134     -0.813148      0.000000
3
Coordinates from ORCA-job Ag03N0_D3H E -440.834432774886
  Ag     -0.000001      1.633154      0.000000
  Ag      1.284963     -0.816579      0.000000
  Ag     -1.284962     -0.816577      0.000000
3
Coordinates from ORCA-job Ag03N0_D3H E -440.834442626702
  Ag     -0.000001      1.634509      0.000000
  Ag      1.287518     -0.817256      0.000000
  Ag     -1.287517     -0.817254      0.000000
3
Coordinates from ORCA-job Ag03N0_D3H E -440.834444451623
  Ag     -0.000001      1.633541      0.000000
  Ag      1.289074     -0.816772      0.000000
  Ag     -1.289073     -0.816770      0.000000
3
Coordinates from ORCA-job Ag03N0_D3H E -440.834444270427
  Ag     -0.000001      1.632928      0.000000
  Ag      1.289328     -0.816465      0.000000
  Ag     -1.289327     -0.816463      0.000000
