2
Coordinates from ORCA-job Au02N0 E -271.407827382159
  Au      0.000000      0.000000      1.239541
  Au      0.000000      0.000000     -1.239541
2
Coordinates from ORCA-job Au02N0 E -271.405230443106
  Au      0.000000      0.000000      1.318918
  Au      0.000000      0.000000     -1.318918
2
Coordinates from ORCA-job Au02N0 E -271.407966040264
  Au      0.000000      0.000000      1.264778
  Au      0.000000      0.000000     -1.264778
2
Coordinates from ORCA-job Au02N0 E -271.408042181719
  Au      0.000000      0.000000      1.253895
  Au      0.000000      0.000000     -1.253895
2
Coordinates from ORCA-job Au02N0 E -271.408040790425
  Au      0.000000      0.000000      1.256838
  Au      0.000000      0.000000     -1.256838
2
Coordinates from ORCA-job Au02N0 E -271.408041107695
  Au      0.000000      0.000000      1.256727
  Au      0.000000      0.000000     -1.256727
