3
Coordinates from ORCA-job Au03N0_LIN E -407.112882495448
  Au      0.000000      0.000000      0.000000
  Au      0.000000      0.000000      2.547414
  Au      0.000000      0.000000     -2.547414
3
Coordinates from ORCA-job Au03N0_LIN E -407.110621165551
  Au      0.000000      0.000000      0.000000
  Au     -0.000000     -0.000000      2.659669
  Au     -0.000000     -0.000000     -2.659670
3
Coordinates from ORCA-job Au03N0_LIN E -407.112971942744
  Au     -0.000000      0.000000      0.000000
  Au      0.000000     -0.000000      2.580278
  Au      0.000000     -0.000000     -2.580278
3
Coordinates from ORCA-job Au03N0_LIN E -407.113023403384
  Au     -0.000000     -0.000000      0.000015
  Au      0.000000      0.000000      2.568403
  Au      0.000000      0.000000     -2.568418
3
Coordinates from ORCA-job Au03N0_LIN E -407.113020014124
  Au     -0.000000     -0.000000     -0.000039
  Au      0.000000      0.000000      2.570961
  Au      0.000000      0.000000     -2.570922
3
Coordinates from ORCA-job Au03N0_LIN E -407.113020071706
  Au      0.000000      0.000000      0.000136
  Au     -0.000000     -0.000000      2.570849
  Au     -0.000000     -0.000000     -2.570985
