3
Coordinates from ORCA-job Au03C1_LIN E -406.799887724605
  Au      0.000000      0.000000      0.000000
  Au      0.000000      0.000000      2.576864
  Au      0.000000      0.000000     -2.576864
3
Coordinates from ORCA-job Au03C1_LIN E -406.798195563675
  Au     -0.000000     -0.000000      0.000000
  Au      0.000000      0.000000      2.682032
  Au      0.000000      0.000000     -2.682032
3
Coordinates from ORCA-job Au03C1_LIN E -406.799947991596
  Au     -0.000000     -0.000000      0.000000
  Au      0.000000      0.000000      2.606836
  Au      0.000000      0.000000     -2.606837
3
Coordinates from ORCA-job Au03C1_LIN E -406.799983527335
  Au     -0.000000      0.000000     -0.000002
  Au      0.000000     -0.000000      2.596747
  Au      0.000000     -0.000000     -2.596745
3
Coordinates from ORCA-job Au03C1_LIN E -406.799980795581
  Au     -0.000000      0.000000      0.000005
  Au      0.000000     -0.000000      2.598716
  Au      0.000000     -0.000000     -2.598721
3
Coordinates from ORCA-job Au03C1_LIN E -406.799980844033
  Au     -0.000000      0.000000     -0.000019
  Au      0.000000     -0.000000      2.598688
  Au      0.000000     -0.000000     -2.598669
