3
Coordinates from ORCA-job Au03C1_D3H E -406.866890146261
  Au      0.000000      1.501400     -0.000000
  Au      1.300251     -0.750700     -0.000000
  Au     -1.300251     -0.750700     -0.000000
3
Coordinates from ORCA-job Au03C1_D3H E -406.865240745477
  Au     -0.000000      1.554593      0.000000
  Au      1.345840     -0.777297      0.000000
  Au     -1.345840     -0.777297      0.000000
3
Coordinates from ORCA-job Au03C1_D3H E -406.867045339302
  Au     -0.000000      1.519294      0.000000
  Au      1.315208     -0.759647      0.000000
  Au     -1.315208     -0.759647      0.000000
3
Coordinates from ORCA-job Au03C1_D3H E -406.867080039336
  Au     -0.000000      1.514405      0.000000
  Au      1.311572     -0.757203      0.000000
  Au     -1.311572     -0.757203      0.000000
3
Coordinates from ORCA-job Au03C1_D3H E -406.867077824116
  Au     -0.000000      1.515406      0.000000
  Au      1.311918     -0.757703      0.000000
  Au     -1.311918     -0.757703      0.000000
3
Coordinates from ORCA-job Au03C1_D3H E -406.867077896141
  Au      0.000000      1.515200      0.000000
  Au      1.312112     -0.757600      0.000000
  Au     -1.312112     -0.757600      0.000000
