2
Coordinates from ORCA-job Cu01N0_H E -1641.095653652689
  Cu      0.000000      0.000000      0.048513
  H       0.000000      0.000000     -1.406870
2
Coordinates from ORCA-job Cu01N0_H E -1641.095685796859
  Cu      0.000000      0.000000      0.050094
  H       0.000000      0.000000     -1.408451
2
Coordinates from ORCA-job Cu01N0_H E -1641.095767908746
  Cu      0.000000      0.000000      0.058423
  H       0.000000      0.000000     -1.416780
2
Coordinates from ORCA-job Cu01N0_H E -1641.095768271693
  Cu      0.000000      0.000000      0.058814
  H       0.000000      0.000000     -1.417171
2
Coordinates from ORCA-job Cu01N0_H E -1641.095768280005
  Cu      0.000000      0.000000      0.058829
  H       0.000000      0.000000     -1.417186
