2
Coordinates from ORCA-job Cu01N0_F E -1740.409519795668
  Cu      0.000000      0.000000      0.412716
  F       0.000000      0.000000     -1.329863
2
Coordinates from ORCA-job Cu01N0_F E -1740.409538034451
  Cu      0.000000      0.000000      0.413709
  F       0.000000      0.000000     -1.330856
2
Coordinates from ORCA-job Cu01N0_F E -1740.409585157980
  Cu      0.000000      0.000000      0.419362
  F       0.000000      0.000000     -1.336509
2
Coordinates from ORCA-job Cu01N0_F E -1740.409585098692
  Cu      0.000000      0.000000      0.419585
  F       0.000000      0.000000     -1.336732
2
Coordinates from ORCA-job Cu01N0_F E -1740.409585076489
  Cu      0.000000      0.000000      0.419593
  F       0.000000      0.000000     -1.336740
