2
Coordinates from ORCA-job Cu02N0 E -3281.054278486465
  Cu      0.000000      0.000000      1.107490
  Cu      0.000000      0.000000     -1.107490
2
Coordinates from ORCA-job Cu02N0 E -3281.054290809276
  Cu      0.000000      0.000000      1.108016
  Cu      0.000000      0.000000     -1.108016
2
Coordinates from ORCA-job Cu02N0 E -3281.054502720113
  Cu      0.000000      0.000000      1.125023
  Cu      0.000000      0.000000     -1.125023
2
Coordinates from ORCA-job Cu02N0 E -3281.054504690614
  Cu      0.000000      0.000000      1.126285
  Cu      0.000000      0.000000     -1.126285
2
Coordinates from ORCA-job Cu02N0 E -3281.054504769294
  Cu      0.000000      0.000000      1.126384
  Cu      0.000000      0.000000     -1.126384
