3
Coordinates from ORCA-job Cu03N0_LIN E -4921.581955257436
  Cu      0.000000      0.000000      0.000000
  Cu      0.000000      0.000000      2.291099
  Cu      0.000000      0.000000     -2.291099
3
Coordinates from ORCA-job Cu03N0_LIN E -4921.581962567959
  Cu      0.000000     -0.000000     -0.000000
  Cu     -0.000000      0.000000      2.291740
  Cu     -0.000000      0.000000     -2.291740
3
Coordinates from ORCA-job Cu03N0_LIN E -4921.582097516503
  Cu      0.000000     -0.000000      0.000000
  Cu     -0.000000      0.000000      2.313585
  Cu     -0.000000      0.000000     -2.313585
3
Coordinates from ORCA-job Cu03N0_LIN E -4921.582098738730
  Cu      0.000000     -0.000000      0.000000
  Cu     -0.000000      0.000000      2.314866
  Cu     -0.000000      0.000000     -2.314866
3
Coordinates from ORCA-job Cu03N0_LIN E -4921.582098786036
  Cu      0.000000     -0.000000      0.000000
  Cu     -0.000000      0.000000      2.314939
  Cu     -0.000000      0.000000     -2.314939
