2
Coordinates from ORCA-job Ag01N0_H E -147.431534785690
  Ag      0.000000      0.000000      0.033547
  H       0.000000      0.000000     -1.576706
2
Coordinates from ORCA-job Ag01N0_H E -147.431543438856
  Ag      0.000000      0.000000      0.032418
  H       0.000000      0.000000     -1.575577
2
Coordinates from ORCA-job Ag01N0_H E -147.431556377294
  Ag      0.000000      0.000000      0.028565
  H       0.000000      0.000000     -1.571724
2
Coordinates from ORCA-job Ag01N0_H E -147.431556458111
  Ag      0.000000      0.000000      0.028645
  H       0.000000      0.000000     -1.571804
