3
Coordinates from ORCA-job Ag03C1_D3H E -440.433465440273
  Ag      0.000000      1.529877      0.000000
  Ag      1.324912     -0.764938      0.000000
  Ag     -1.324912     -0.764938      0.000000
3
Coordinates from ORCA-job Ag03C1_D3H E -440.433467604422
  Ag      0.000000      1.530220      0.000000
  Ag      1.325175     -0.765109      0.000000
  Ag     -1.325175     -0.765109      0.000000
3
Coordinates from ORCA-job Ag03C1_D3H E -440.433480032533
  Ag     -0.000000      1.534398      0.000000
  Ag      1.328378     -0.767198      0.000000
  Ag     -1.328378     -0.767198      0.000000
3
Coordinates from ORCA-job Ag03C1_D3H E -440.433479984144
  Ag     -0.000000      1.534470      0.000000
  Ag      1.328428     -0.767235      0.000000
  Ag     -1.328428     -0.767235      0.000000
