2
Coordinates from ORCA-job Au01N0_F E -235.299318003987
  Au      0.000000      0.000000      0.196853
  F       0.000000      0.000000     -1.727931
2
Coordinates from ORCA-job Au01N0_F E -235.299318602416
  Au      0.000000      0.000000      0.205031
  F       0.000000      0.000000     -1.736109
2
Coordinates from ORCA-job Au01N0_F E -235.299341983933
  Au      0.000000      0.000000      0.201015
  F       0.000000      0.000000     -1.732093
2
Coordinates from ORCA-job Au01N0_F E -235.299341933961
  Au      0.000000      0.000000      0.200921
  F       0.000000      0.000000     -1.731999
