2
Coordinates from ORCA-job Au02N0 E -271.091558639928
  Au      0.000000      0.000000      1.239541
  Au      0.000000      0.000000     -1.239541
2
Coordinates from ORCA-job Au02N0 E -271.091420538471
  Au      0.000000      0.000000      1.254186
  Au      0.000000      0.000000     -1.254186
2
Coordinates from ORCA-job Au02N0 E -271.091563912432
  Au      0.000000      0.000000      1.242070
  Au      0.000000      0.000000     -1.242070
2
Coordinates from ORCA-job Au02N0 E -271.091563626412
  Au      0.000000      0.000000      1.241889
  Au      0.000000      0.000000     -1.241889
