3
Coordinates from ORCA-job Au03C1_LIN E -406.321512465947
  Au      0.000000      0.000000      0.000000
  Au      0.000000      0.000000      2.576864
  Au      0.000000      0.000000     -2.576864
3
Coordinates from ORCA-job Au03C1_LIN E -406.321408880837
  Au     -0.000000     -0.000000      0.000000
  Au      0.000000      0.000000      2.554028
  Au      0.000000      0.000000     -2.554028
3
Coordinates from ORCA-job Au03C1_LIN E -406.321518495436
  Au     -0.000000     -0.000000      0.000000
  Au      0.000000      0.000000      2.572908
  Au      0.000000      0.000000     -2.572908
3
Coordinates from ORCA-job Au03C1_LIN E -406.321518589863
  Au     -0.000000     -0.000000     -0.000000
  Au      0.000000      0.000000      2.572769
  Au      0.000000      0.000000     -2.572769
