3
Coordinates from ORCA-job Au03N0_LIN E -406.634928713138
  Au      0.000000      0.000000      0.000000
  Au      0.000000      0.000000      2.547414
  Au      0.000000      0.000000     -2.547414
3
Coordinates from ORCA-job Au03N0_LIN E -406.634753011208
  Au      0.000000      0.000000      0.000000
  Au     -0.000000     -0.000000      2.521017
  Au     -0.000000     -0.000000     -2.521017
3
Coordinates from ORCA-job Au03N0_LIN E -406.634936878309
  Au      0.000000      0.000000      0.000000
  Au     -0.000000     -0.000000      2.543166
  Au     -0.000000     -0.000000     -2.543166
3
Coordinates from ORCA-job Au03N0_LIN E -406.634936769818
  Au      0.000000      0.000000     -0.000000
  Au     -0.000000     -0.000000      2.543018
  Au     -0.000000     -0.000000     -2.543018
