3
Coordinates from ORCA-job Au03N0_D3H E -406.640348247431
  Au      0.000000      1.515176     -0.000000
  Au      1.312181     -0.757588      0.000000
  Au     -1.312181     -0.757588     -0.000000
3
Coordinates from ORCA-job Au03N0_D3H E -406.641917293519
  Au     -0.000000      1.577998      0.000000
  Au      1.245978     -0.788999      0.000000
  Au     -1.245977     -0.788999      0.000000
3
Coordinates from ORCA-job Au03N0_D3H E -406.640856717477
  Au     -0.000001      1.627408      0.000000
  Au      1.287493     -0.813705      0.000000
  Au     -1.287493     -0.813703      0.000000
3
Coordinates from ORCA-job Au03N0_D3H E -406.642246780865
  Au     -0.000001      1.575107      0.000000
  Au      1.270477     -0.787554      0.000000
  Au     -1.270476     -0.787553      0.000000
3
Coordinates from ORCA-job Au03N0_D3H E -406.642261008528
  Au     -0.000001      1.577072      0.000000
  Au      1.264915     -0.788537      0.000000
  Au     -1.264914     -0.788535      0.000000
3
Coordinates from ORCA-job Au03N0_D3H E -406.642262050575
  Au     -0.000001      1.576160      0.000000
  Au      1.265982     -0.788080      0.000000
  Au     -1.265982     -0.788079      0.000000
3
Coordinates from ORCA-job Au03N0_D3H E -406.642262038864
  Au     -0.000001      1.576326      0.000000
  Au      1.265956     -0.788164      0.000000
  Au     -1.265955     -0.788162      0.000000
