2
Coordinates from ORCA-job Cu01N0_F E -1739.993291723809
  Cu      0.000000      0.000000      0.412716
  F       0.000000      0.000000     -1.329863
2
Coordinates from ORCA-job Cu01N0_F E -1739.993339913193
  Cu      0.000000      0.000000      0.414805
  F       0.000000      0.000000     -1.331952
2
Coordinates from ORCA-job Cu01N0_F E -1739.993373913691
  Cu      0.000000      0.000000      0.426519
  F       0.000000      0.000000     -1.343666
2
Coordinates from ORCA-job Cu01N0_F E -1739.993359725957
  Cu      0.000000      0.000000      0.427499
  F       0.000000      0.000000     -1.344646
2
Coordinates from ORCA-job Cu01N0_F E -1739.993358625932
  Cu      0.000000      0.000000      0.427574
  F       0.000000      0.000000     -1.344721
