3
Coordinates from ORCA-job Cu03C1_D3H E -4920.351907651323
  Cu      0.000000      1.349261     -0.000000
  Cu      1.168494     -0.674630      0.000000
  Cu     -1.168494     -0.674630     -0.000000
3
Coordinates from ORCA-job Cu03C1_D3H E -4920.351958939808
  Cu      0.000000      1.350678      0.000000
  Cu      1.169715     -0.675339      0.000000
  Cu     -1.169715     -0.675339      0.000000
3
Coordinates from ORCA-job Cu03C1_D3H E -4920.351953257481
  Cu     -0.000000      1.392300      0.000000
  Cu      1.205578     -0.696149      0.000000
  Cu     -1.205578     -0.696149      0.000000
3
Coordinates from ORCA-job Cu03C1_D3H E -4920.351702973132
  Cu     -0.000000      1.399249      0.000000
  Cu      1.211561     -0.699624      0.000000
  Cu     -1.211561     -0.699624      0.000000
3
Coordinates from ORCA-job Cu03C1_D3H E -4920.351669020019
  Cu     -0.000000      1.400071      0.000000
  Cu      1.212266     -0.700035      0.000000
  Cu     -1.212266     -0.700035      0.000000
3
Coordinates from ORCA-job Cu03C1_D3H E -4920.351668245614
  Cu     -0.000000      1.400089      0.000000
  Cu      1.212277     -0.700044      0.000000
  Cu     -1.212277     -0.700044      0.000000
