3
Coordinates from ORCA-job Cu03N0_D3H E -4920.552562016119
  Cu      0.000000      1.346828     -0.000000
  Cu      1.166387     -0.673414     -0.000000
  Cu     -1.166387     -0.673414     -0.000000
3
Coordinates from ORCA-job Cu03N0_D3H E -4920.552690144922
  Cu      0.000000      1.349695      0.000000
  Cu      1.166225     -0.674847      0.000000
  Cu     -1.166225     -0.674847      0.000000
3
Coordinates from ORCA-job Cu03N0_D3H E -4920.554331128992
  Cu      0.000001      1.433887      0.000000
  Cu      1.161171     -0.716943      0.000000
  Cu     -1.161172     -0.716944      0.000000
3
Coordinates from ORCA-job Cu03N0_D3H E -4920.554204892049
  Cu      0.000001      1.455903      0.000000
  Cu      1.159808     -0.727951      0.000000
  Cu     -1.159808     -0.727952      0.000000
3
Coordinates from ORCA-job Cu03N0_D3H E -4920.554151577618
  Cu      0.000001      1.460717      0.000000
  Cu      1.159563     -0.730358      0.000000
  Cu     -1.159564     -0.730359      0.000000
3
Coordinates from ORCA-job Cu03N0_D3H E -4920.554146451715
  Cu      0.000001      1.461031      0.000000
  Cu      1.159604     -0.730515      0.000000
  Cu     -1.159605     -0.730516      0.000000
3
Coordinates from ORCA-job Cu03N0_D3H E -4920.554134479615
  Cu      0.000001      1.461492      0.000000
  Cu      1.159819     -0.730745      0.000000
  Cu     -1.159820     -0.730747      0.000000
3
Coordinates from ORCA-job Cu03N0_D3H E -4920.554117746006
  Cu      0.000001      1.461774      0.000000
  Cu      1.160309     -0.730886      0.000000
  Cu     -1.160310     -0.730888      0.000000
3
Coordinates from ORCA-job Cu03N0_D3H E -4920.554102783758
  Cu      0.000001      1.461539      0.000000
  Cu      1.160989     -0.730768      0.000000
  Cu     -1.160990     -0.730770      0.000000
3
Coordinates from ORCA-job Cu03N0_D3H E -4920.554100193609
  Cu      0.000001      1.460977      0.000000
  Cu      1.161368     -0.730488      0.000000
  Cu     -1.161369     -0.730490      0.000000
