3
Coordinates from ORCA-job Cu03N0_LIN E -4920.543082145394
  Cu      0.000000      0.000000      0.000000
  Cu      0.000000      0.000000      2.291099
  Cu      0.000000      0.000000     -2.291099
3
Coordinates from ORCA-job Cu03N0_LIN E -4920.543142399561
  Cu     -0.000000      0.000000      0.000000
  Cu      0.000000     -0.000000      2.294730
  Cu      0.000000     -0.000000     -2.294730
3
Coordinates from ORCA-job Cu03N0_LIN E -4920.542489007379
  Cu      0.000000     -0.000000     -0.000000
  Cu     -0.000000      0.000000      2.398251
  Cu     -0.000000      0.000000     -2.398251
3
Coordinates from ORCA-job Cu03N0_LIN E -4920.541450952583
  Cu      0.000000     -0.000000     -0.000000
  Cu     -0.000000      0.000000      2.432920
  Cu     -0.000000      0.000000     -2.432920
3
Coordinates from ORCA-job Cu03N0_LIN E -4920.541049141603
  Cu      0.000000     -0.000000     -0.000000
  Cu     -0.000000      0.000000      2.444069
  Cu     -0.000000      0.000000     -2.444069
3
Coordinates from ORCA-job Cu03N0_LIN E -4920.541013406722
  Cu      0.000000     -0.000000     -0.000000
  Cu     -0.000000      0.000000      2.445025
  Cu     -0.000000      0.000000     -2.445025
3
Coordinates from ORCA-job Cu03N0_LIN E -4920.541012191065
  Cu      0.000000     -0.000000     -0.000000
  Cu     -0.000000      0.000000      2.445046
  Cu     -0.000000      0.000000     -2.445046
