2
Coordinates from ORCA-job Ag01N0_F E -246.804169791652
  Ag      0.000000      0.000000      0.317712
  F       0.000000      0.000000     -1.659163
2
Coordinates from ORCA-job Ag01N0_F E -246.804202967275
  Ag      0.000000      0.000000      0.319814
  F       0.000000      0.000000     -1.661265
2
Coordinates from ORCA-job Ag01N0_F E -246.804241079690
  Ag      0.000000      0.000000      0.325396
  F       0.000000      0.000000     -1.666847
2
Coordinates from ORCA-job Ag01N0_F E -246.804241131928
  Ag      0.000000      0.000000      0.325614
  F       0.000000      0.000000     -1.667065
2
Coordinates from ORCA-job Ag01N0_F E -246.804241133960
  Ag      0.000000      0.000000      0.325621
  F       0.000000      0.000000     -1.667072
