2
Coordinates from ORCA-job Ag02N0 E -293.930235661624
  Ag      0.000000      0.000000      1.261821
  Ag      0.000000      0.000000     -1.261821
2
Coordinates from ORCA-job Ag02N0 E -293.930270903718
  Ag      0.000000      0.000000      1.263432
  Ag      0.000000      0.000000     -1.263432
2
Coordinates from ORCA-job Ag02N0 E -293.930456272455
  Ag      0.000000      0.000000      1.280250
  Ag      0.000000      0.000000     -1.280250
2
Coordinates from ORCA-job Ag02N0 E -293.930457530417
  Ag      0.000000      0.000000      1.281679
  Ag      0.000000      0.000000     -1.281679
2
Coordinates from ORCA-job Ag02N0 E -293.930457535611
  Ag      0.000000      0.000000      1.281799
  Ag      0.000000      0.000000     -1.281799
