3
Coordinates from ORCA-job Ag03C1_D3H E -440.700950125922
  Ag      0.000000      1.529877      0.000000
  Ag      1.324912     -0.764938      0.000000
  Ag     -1.324912     -0.764938      0.000000
3
Coordinates from ORCA-job Ag03C1_D3H E -440.701032240992
  Ag     -0.000000      1.531990      0.000000
  Ag      1.326655     -0.765995      0.000000
  Ag     -1.326655     -0.765994      0.000000
3
Coordinates from ORCA-job Ag03C1_D3H E -440.701508331921
  Ag      0.000000      1.555758      0.000000
  Ag      1.346231     -0.777878      0.000000
  Ag     -1.346231     -0.777878      0.000000
3
Coordinates from ORCA-job Ag03C1_D3H E -440.701513782027
  Ag      0.000000      1.558435      0.000000
  Ag      1.348421     -0.779217      0.000000
  Ag     -1.348421     -0.779217      0.000000
3
Coordinates from ORCA-job Ag03C1_D3H E -440.701513823306
  Ag      0.000000      1.558696      0.000000
  Ag      1.348623     -0.779348      0.000000
  Ag     -1.348623     -0.779348      0.000000
