3
Coordinates from ORCA-job Ag03N0_D3H E -440.892276081471
  Ag      0.000000      1.533951     -0.000000
  Ag      1.328441     -0.766976      0.000000
  Ag     -1.328441     -0.766976     -0.000000
3
Coordinates from ORCA-job Ag03N0_D3H E -440.892299747097
  Ag      0.000000      1.534266      0.000000
  Ag      1.327463     -0.767133      0.000000
  Ag     -1.327463     -0.767133      0.000000
3
Coordinates from ORCA-job Ag03N0_D3H E -440.892538816911
  Ag      0.000000      1.538196      0.000000
  Ag      1.315164     -0.769098      0.000000
  Ag     -1.315164     -0.769099      0.000000
3
Coordinates from ORCA-job Ag03N0_D3H E -440.892156358555
  Ag      0.000001      1.543380      0.000000
  Ag      1.278014     -0.771690      0.000000
  Ag     -1.278015     -0.771691      0.000000
3
Coordinates from ORCA-job Ag03N0_D3H E -440.892564557469
  Ag      0.000000      1.539179      0.000000
  Ag      1.308432     -0.769590      0.000000
  Ag     -1.308433     -0.769590      0.000000
3
Coordinates from ORCA-job Ag03N0_D3H E -440.892564949876
  Ag      0.000000      1.539299      0.000000
  Ag      1.307588     -0.769649      0.000000
  Ag     -1.307589     -0.769650      0.000000
3
Coordinates from ORCA-job Ag03N0_D3H E -440.892564943957
  Ag      0.000000      1.539307      0.000000
  Ag      1.307527     -0.769654      0.000000
  Ag     -1.307528     -0.769654      0.000000
3
Coordinates from ORCA-job Ag03N0_D3H E -440.892564966958
  Ag      0.000000      1.539300      0.000000
  Ag      1.307577     -0.769650      0.000000
  Ag     -1.307578     -0.769651      0.000000
3
Coordinates from ORCA-job Ag03N0_D3H E -440.892564967378
  Ag      0.000000      1.539292      0.000000
  Ag      1.307634     -0.769646      0.000000
  Ag     -1.307634     -0.769647      0.000000
3
Coordinates from ORCA-job Ag03N0_D3H E -440.892564973839
  Ag      0.000000      1.539286      0.000000
  Ag      1.307681     -0.769643      0.000000
  Ag     -1.307682     -0.769644      0.000000
3
Coordinates from ORCA-job Ag03N0_D3H E -440.892564978200
  Ag      0.000001      1.539276      0.000000
  Ag      1.307752     -0.769638      0.000000
  Ag     -1.307752     -0.769639      0.000000
3
Coordinates from ORCA-job Ag03N0_D3H E -440.892564981639
  Ag      0.000001      1.539269      0.000000
  Ag      1.307803     -0.769634      0.000000
  Ag     -1.307804     -0.769636      0.000000
3
Coordinates from ORCA-job Ag03N0_D3H E -440.892564984728
  Ag      0.000001      1.539259      0.000000
  Ag      1.307877     -0.769629      0.000000
  Ag     -1.307878     -0.769631      0.000000
3
Coordinates from ORCA-job Ag03N0_D3H E -440.892564986765
  Ag      0.000001      1.539252      0.000000
  Ag      1.307929     -0.769625      0.000000
  Ag     -1.307930     -0.769628      0.000000
3
Coordinates from ORCA-job Ag03N0_D3H E -440.892564988623
  Ag      0.000002      1.539242      0.000000
  Ag      1.308003     -0.769620      0.000000
  Ag     -1.308005     -0.769623      0.000000
3
Coordinates from ORCA-job Ag03N0_D3H E -440.892564990226
  Ag      0.000003      1.539235      0.000000
  Ag      1.308055     -0.769616      0.000000
  Ag     -1.308058     -0.769621      0.000000
3
Coordinates from ORCA-job Ag03N0_D3H E -440.892564991497
  Ag      0.000004      1.539226      0.000000
  Ag      1.308128     -0.769610      0.000000
  Ag     -1.308132     -0.769617      0.000000
3
Coordinates from ORCA-job Ag03N0_D3H E -440.892564993349
  Ag      0.000006      1.539219      0.000000
  Ag      1.308183     -0.769604      0.000000
  Ag     -1.308189     -0.769615      0.000000
3
Coordinates from ORCA-job Ag03N0_D3H E -440.892564993117
  Ag      0.000009      1.539210      0.000000
  Ag      1.308249     -0.769597      0.000000
  Ag     -1.308258     -0.769614      0.000000
3
Coordinates from ORCA-job Ag03N0_D3H E -440.892564994608
  Ag      0.000013      1.539203      0.000000
  Ag      1.308302     -0.769590      0.000000
  Ag     -1.308316     -0.769614      0.000000
3
Coordinates from ORCA-job Ag03N0_D3H E -440.892564994420
  Ag      0.000021      1.539194      0.000000
  Ag      1.308366     -0.769579      0.000000
  Ag     -1.308386     -0.769616      0.000000
3
Coordinates from ORCA-job Ag03N0_D3H E -440.892564995805
  Ag      0.000031      1.539187      0.000000
  Ag      1.308421     -0.769567      0.000000
  Ag     -1.308452     -0.769621      0.000000
3
Coordinates from ORCA-job Ag03N0_D3H E -440.892565004366
  Ag      0.000058      1.539171      0.000000
  Ag      1.308534     -0.769535      0.000000
  Ag     -1.308592     -0.769637      0.000000
3
Coordinates from ORCA-job Ag03N0_D3H E -440.892564976159
  Ag      0.000081      1.539163      0.000000
  Ag      1.308588     -0.769511      0.000000
  Ag     -1.308669     -0.769654      0.000000
3
Coordinates from ORCA-job Ag03N0_D3H E -440.892564908608
  Ag      0.000166      1.539140      0.000000
  Ag      1.308732     -0.769424      0.000000
  Ag     -1.308897     -0.769717      0.000000
3
Coordinates from ORCA-job Ag03N0_D3H E -440.892564911748
  Ag      0.000271      1.539121      0.000000
  Ag      1.308839     -0.769321      0.000000
  Ag     -1.309111     -0.769800      0.000000
3
Coordinates from ORCA-job Ag03N0_D3H E -440.892564957763
  Ag      0.000395      1.539146      0.000000
  Ag      1.308576     -0.769225      0.000000
  Ag     -1.308972     -0.769922      0.000000
3
Coordinates from ORCA-job Ag03N0_D3H E -440.892564951532
  Ag      0.000395      1.539146      0.000000
  Ag      1.308576     -0.769225      0.000000
  Ag     -1.308972     -0.769922      0.000000
3
Coordinates from ORCA-job Ag03N0_D3H E -440.892564954113
  Ag      0.000395      1.539146      0.000000
  Ag      1.308576     -0.769225      0.000000
  Ag     -1.308972     -0.769922      0.000000
3
Coordinates from ORCA-job Ag03N0_D3H E -440.892564955242
  Ag      0.000395      1.539146      0.000000
  Ag      1.308576     -0.769225      0.000000
  Ag     -1.308972     -0.769922      0.000000
3
Coordinates from ORCA-job Ag03N0_D3H E -440.892564957498
  Ag      0.000395      1.539146      0.000000
  Ag      1.308576     -0.769225      0.000000
  Ag     -1.308972     -0.769922      0.000000
3
Coordinates from ORCA-job Ag03N0_D3H E -440.892564958939
  Ag      0.000395      1.539146      0.000000
  Ag      1.308576     -0.769225      0.000000
  Ag     -1.308972     -0.769922      0.000000
3
Coordinates from ORCA-job Ag03N0_D3H E -440.892564961015
  Ag      0.000395      1.539146      0.000000
  Ag      1.308576     -0.769225      0.000000
  Ag     -1.308972     -0.769922      0.000000
3
Coordinates from ORCA-job Ag03N0_D3H E -440.892564962617
  Ag      0.000395      1.539146      0.000000
  Ag      1.308576     -0.769225      0.000000
  Ag     -1.308972     -0.769922      0.000000
3
Coordinates from ORCA-job Ag03N0_D3H E -440.892564964578
  Ag      0.000395      1.539146      0.000000
  Ag      1.308576     -0.769225      0.000000
  Ag     -1.308972     -0.769922      0.000000
3
Coordinates from ORCA-job Ag03N0_D3H E -440.892564966253
  Ag      0.000395      1.539146      0.000000
  Ag      1.308576     -0.769225      0.000000
  Ag     -1.308972     -0.769922      0.000000
3
Coordinates from ORCA-job Ag03N0_D3H E -440.892564968146
  Ag      0.000395      1.539146      0.000000
  Ag      1.308576     -0.769225      0.000000
  Ag     -1.308972     -0.769922      0.000000
3
Coordinates from ORCA-job Ag03N0_D3H E -440.892564969856
  Ag      0.000395      1.539146      0.000000
  Ag      1.308576     -0.769225      0.000000
  Ag     -1.308972     -0.769922      0.000000
3
Coordinates from ORCA-job Ag03N0_D3H E -440.892564971693
  Ag      0.000395      1.539146      0.000000
  Ag      1.308576     -0.769225      0.000000
  Ag     -1.308972     -0.769922      0.000000
3
Coordinates from ORCA-job Ag03N0_D3H E -440.892564973426
  Ag      0.000395      1.539146      0.000000
  Ag      1.308576     -0.769225      0.000000
  Ag     -1.308972     -0.769922      0.000000
3
Coordinates from ORCA-job Ag03N0_D3H E -440.892564975219
  Ag      0.000395      1.539146      0.000000
  Ag      1.308576     -0.769225      0.000000
  Ag     -1.308972     -0.769922      0.000000
3
Coordinates from ORCA-job Ag03N0_D3H E -440.892564976946
  Ag      0.000395      1.539146      0.000000
  Ag      1.308576     -0.769225      0.000000
  Ag     -1.308972     -0.769922      0.000000
3
Coordinates from ORCA-job Ag03N0_D3H E -440.892564978694
  Ag      0.000395      1.539146      0.000000
  Ag      1.308576     -0.769225      0.000000
  Ag     -1.308972     -0.769922      0.000000
3
Coordinates from ORCA-job Ag03N0_D3H E -440.892564980421
  Ag      0.000395      1.539146      0.000000
  Ag      1.308576     -0.769225      0.000000
  Ag     -1.308972     -0.769922      0.000000
3
Coordinates from ORCA-job Ag03N0_D3H E -440.892564982146
  Ag      0.000395      1.539146      0.000000
  Ag      1.308576     -0.769225      0.000000
  Ag     -1.308972     -0.769922      0.000000
3
Coordinates from ORCA-job Ag03N0_D3H E -440.892564983847
  Ag      0.000395      1.539146      0.000000
  Ag      1.308576     -0.769225      0.000000
  Ag     -1.308972     -0.769922      0.000000
3
Coordinates from ORCA-job Ag03N0_D3H E -440.892564985545
  Ag      0.000395      1.539146      0.000000
  Ag      1.308576     -0.769225      0.000000
  Ag     -1.308972     -0.769922      0.000000
3
Coordinates from ORCA-job Ag03N0_D3H E -440.892564987223
  Ag      0.000395      1.539146      0.000000
  Ag      1.308576     -0.769225      0.000000
  Ag     -1.308972     -0.769922      0.000000
3
Coordinates from ORCA-job Ag03N0_D3H E -440.892564988912
  Ag      0.000395      1.539146      0.000000
  Ag      1.308576     -0.769225      0.000000
  Ag     -1.308972     -0.769922      0.000000
3
Coordinates from ORCA-job Ag03N0_D3H E -440.892564990608
  Ag      0.000395      1.539146      0.000000
  Ag      1.308576     -0.769225      0.000000
  Ag     -1.308972     -0.769922      0.000000
