3
Coordinates from ORCA-job Ag03C1_LIN E -440.638751282294
  Ag      0.000000      0.000000      0.000000
  Ag      0.000000      0.000000      2.629319
  Ag      0.000000      0.000000     -2.629319
3
Coordinates from ORCA-job Ag03C1_LIN E -440.638771955124
  Ag     -0.000000      0.000000      0.000000
  Ag      0.000000     -0.000000      2.631430
  Ag      0.000000     -0.000000     -2.631430
3
Coordinates from ORCA-job Ag03C1_LIN E -440.638905721769
  Ag      0.000000      0.000000      0.000000
  Ag     -0.000000     -0.000000      2.658471
  Ag     -0.000000     -0.000000     -2.658471
3
Coordinates from ORCA-job Ag03C1_LIN E -440.638906400692
  Ag      0.000000      0.000000     -0.000000
  Ag     -0.000000     -0.000000      2.660462
  Ag     -0.000000     -0.000000     -2.660462
3
Coordinates from ORCA-job Ag03C1_LIN E -440.638906408350
  Ag      0.000000      0.000000     -0.000000
  Ag     -0.000000     -0.000000      2.660594
  Ag     -0.000000     -0.000000     -2.660594
