3
Coordinates from ORCA-job Ag03N0_LIN E -440.889646947678
  Ag      0.000000      0.000000      0.000000
  Ag      0.000000      0.000000      2.592532
  Ag      0.000000      0.000000     -2.592532
3
Coordinates from ORCA-job Ag03N0_LIN E -440.889711215829
  Ag      0.000000     -0.000000      0.000000
  Ag     -0.000000      0.000000      2.596016
  Ag     -0.000000      0.000000     -2.596016
3
Coordinates from ORCA-job Ag03N0_LIN E -440.890094828387
  Ag     -0.000000      0.000000      0.000000
  Ag      0.000000     -0.000000      2.636170
  Ag      0.000000     -0.000000     -2.636170
3
Coordinates from ORCA-job Ag03N0_LIN E -440.890099997813
  Ag     -0.000000      0.000000      0.000000
  Ag      0.000000     -0.000000      2.641071
  Ag      0.000000     -0.000000     -2.641071
3
Coordinates from ORCA-job Ag03N0_LIN E -440.890100043599
  Ag     -0.000000      0.000000      0.000000
  Ag      0.000000     -0.000000      2.641627
  Ag      0.000000     -0.000000     -2.641627
