2
Coordinates from ORCA-job Au01N0_F E -235.515031037480
  Au      0.000000      0.000000      0.196853
  F       0.000000      0.000000     -1.727931
2
Coordinates from ORCA-job Au01N0_F E -235.515040703929
  Au      0.000000      0.000000      0.218436
  F       0.000000      0.000000     -1.749514
2
Coordinates from ORCA-job Au01N0_F E -235.515196882784
  Au      0.000000      0.000000      0.208214
  F       0.000000      0.000000     -1.739292
2
Coordinates from ORCA-job Au01N0_F E -235.515197382055
  Au      0.000000      0.000000      0.207581
  F       0.000000      0.000000     -1.738659
2
Coordinates from ORCA-job Au01N0_F E -235.515197396917
  Au      0.000000      0.000000      0.207614
  F       0.000000      0.000000     -1.738692
