2
Coordinates from ORCA-job Au02N0 E -271.407415963962
  Au      0.000000      0.000000      1.239541
  Au      0.000000      0.000000     -1.239541
2
Coordinates from ORCA-job Au02N0 E -271.404951973634
  Au      0.000000      0.000000      1.318918
  Au      0.000000      0.000000     -1.318918
2
Coordinates from ORCA-job Au02N0 E -271.407657564038
  Au      0.000000      0.000000      1.265186
  Au      0.000000      0.000000     -1.265186
2
Coordinates from ORCA-job Au02N0 E -271.407704382421
  Au      0.000000      0.000000      1.254777
  Au      0.000000      0.000000     -1.254777
2
Coordinates from ORCA-job Au02N0 E -271.407710215095
  Au      0.000000      0.000000      1.257444
  Au      0.000000      0.000000     -1.257444
2
Coordinates from ORCA-job Au02N0 E -271.407710216930
  Au      0.000000      0.000000      1.257349
  Au      0.000000      0.000000     -1.257349
