3
Coordinates from ORCA-job Au03C1_LIN E -406.633448954154
  Au      0.000000      0.000000      0.000000
  Au      0.000000      0.000000      2.576864
  Au      0.000000      0.000000     -2.576864
3
Coordinates from ORCA-job Au03C1_LIN E -406.646275234247
  Au     -0.000000     -0.000000     -0.000000
  Au      0.000000      0.000000      2.464609
  Au      0.000000      0.000000     -2.464609
3
Coordinates from ORCA-job Au03C1_LIN E -406.648120580545
  Au     -0.000004     -0.000002      0.000000
  Au      0.000002      0.000001      2.369863
  Au      0.000002      0.000001     -2.369863
3
Coordinates from ORCA-job Au03C1_LIN E -406.648692510435
  Au      0.000004     -0.000005      0.000000
  Au     -0.000002      0.000003      2.403943
  Au     -0.000002      0.000003     -2.403943
3
Coordinates from ORCA-job Au03C1_LIN E -406.648704897021
  Au      0.000062     -0.000005     -0.000001
  Au     -0.000031      0.000003      2.399817
  Au     -0.000031      0.000003     -2.399816
3
Coordinates from ORCA-job Au03C1_LIN E -406.648704911924
  Au      0.000059     -0.000010      0.000011
  Au     -0.000029      0.000005      2.399506
  Au     -0.000029      0.000005     -2.399517
