2
Coordinates from ORCA-job Cu01N0_F E -1740.214062059615
  Cu      0.000000      0.000000      0.412716
  F       0.000000      0.000000     -1.329863
2
Coordinates from ORCA-job Cu01N0_F E -1740.214135747711
  Cu      0.000000      0.000000      0.414687
  F       0.000000      0.000000     -1.331834
2
Coordinates from ORCA-job Cu01N0_F E -1740.214328036193
  Cu      0.000000      0.000000      0.425355
  F       0.000000      0.000000     -1.342502
2
Coordinates from ORCA-job Cu01N0_F E -1740.214329128489
  Cu      0.000000      0.000000      0.426188
  F       0.000000      0.000000     -1.343335
2
Coordinates from ORCA-job Cu01N0_F E -1740.214329134071
  Cu      0.000000      0.000000      0.426247
  F       0.000000      0.000000     -1.343394
