3
Coordinates from ORCA-job Cu03N0_D3H E -4921.064804583451
  Cu      0.000000      1.346828     -0.000000
  Cu      1.166387     -0.673414     -0.000000
  Cu     -1.166387     -0.673414     -0.000000
3
Coordinates from ORCA-job Cu03N0_D3H E -4921.064948483384
  Cu     -0.000000      1.349365      0.000000
  Cu      1.165797     -0.674682      0.000000
  Cu     -1.165797     -0.674682      0.000000
3
Coordinates from ORCA-job Cu03N0_D3H E -4921.067718973577
  Cu     -0.000332      1.436088      0.000000
  Cu      1.144915     -0.718332      0.000000
  Cu     -1.144584     -0.717756      0.000000
3
Coordinates from ORCA-job Cu03N0_D3H E -4921.067835057371
  Cu     -0.000407      1.454567      0.000000
  Cu      1.140554     -0.727637      0.000000
  Cu     -1.140147     -0.726930      0.000000
3
Coordinates from ORCA-job Cu03N0_D3H E -4921.067843770888
  Cu     -0.000433      1.459935      0.000000
  Cu      1.139548     -0.730344      0.000000
  Cu     -1.139115     -0.729591      0.000000
3
Coordinates from ORCA-job Cu03N0_D3H E -4921.067846675512
  Cu     -0.000444      1.461337      0.000000
  Cu      1.139589     -0.731055      0.000000
  Cu     -1.139146     -0.730282      0.000000
3
Coordinates from ORCA-job Cu03N0_D3H E -4921.067858289773
  Cu     -0.000491      1.465260      0.000000
  Cu      1.140828     -0.733062      0.000000
  Cu     -1.140337     -0.732198      0.000000
3
Coordinates from ORCA-job Cu03N0_D3H E -4921.067868752522
  Cu     -0.000539      1.466878      0.000000
  Cu      1.143176     -0.733917      0.000000
  Cu     -1.142637     -0.732961      0.000000
3
Coordinates from ORCA-job Cu03N0_D3H E -4921.067875685304
  Cu     -0.000574      1.465660      0.000000
  Cu      1.145928     -0.733344      0.000000
  Cu     -1.145353     -0.732316      0.000000
3
Coordinates from ORCA-job Cu03N0_D3H E -4921.067877110608
  Cu     -0.000580      1.463745      0.000000
  Cu      1.146879     -0.732392      0.000000
  Cu     -1.146299     -0.731352      0.000000
3
Coordinates from ORCA-job Cu03N0_D3H E -4921.067877205180
  Cu     -0.000581      1.463054      0.000000
  Cu      1.146908     -0.732049      0.000000
  Cu     -1.146326     -0.731005      0.000000
