3
Coordinates from ORCA-job Cu03N0_LIN E -4921.057285295838
  Cu      0.000000      0.000000      0.000000
  Cu      0.000000      0.000000      2.291099
  Cu      0.000000      0.000000     -2.291099
3
Coordinates from ORCA-job Cu03N0_LIN E -4921.057330825396
  Cu      0.000000      0.000000      0.000000
  Cu     -0.000000     -0.000000      2.292764
  Cu     -0.000000     -0.000000     -2.292764
3
Coordinates from ORCA-job Cu03N0_LIN E -4921.058098165439
  Cu      0.000001      0.000001     -0.000000
  Cu     -0.000001     -0.000000      2.345183
  Cu     -0.000001     -0.000000     -2.345183
3
Coordinates from ORCA-job Cu03N0_LIN E -4921.058111085488
  Cu      0.000001      0.000001     -0.000000
  Cu     -0.000001     -0.000000      2.352328
  Cu     -0.000001     -0.000000     -2.352328
3
Coordinates from ORCA-job Cu03N0_LIN E -4921.058111294489
  Cu      0.000001      0.000001     -0.000000
  Cu     -0.000001     -0.000000      2.353367
  Cu     -0.000001     -0.000000     -2.353367
