2
Coordinates from ORCA-job Ag01N0_H E -147.506560645249
  Ag      0.000000      0.000000      0.033547
  H       0.000000      0.000000     -1.576706
2
Coordinates from ORCA-job Ag01N0_H E -147.506561411082
  Ag      0.000000      0.000000      0.033835
  H       0.000000      0.000000     -1.576994
2
Coordinates from ORCA-job Ag01N0_H E -147.506562862751
  Ag      0.000000      0.000000      0.034803
  H       0.000000      0.000000     -1.577962
2
Coordinates from ORCA-job Ag01N0_H E -147.506562858858
  Ag      0.000000      0.000000      0.034808
  H       0.000000      0.000000     -1.577967
