2
Coordinates from ORCA-job Ag02N0 E -293.890736821971
  Ag      0.000000      0.000000      1.261821
  Ag      0.000000      0.000000     -1.261821
2
Coordinates from ORCA-job Ag02N0 E -293.890753553590
  Ag      0.000000      0.000000      1.262911
  Ag      0.000000      0.000000     -1.262911
2
Coordinates from ORCA-job Ag02N0 E -293.890849810344
  Ag      0.000000      0.000000      1.275208
  Ag      0.000000      0.000000     -1.275208
2
Coordinates from ORCA-job Ag02N0 E -293.890850408998
  Ag      0.000000      0.000000      1.275997
  Ag      0.000000      0.000000     -1.275997
2
Coordinates from ORCA-job Ag02N0 E -293.890850436719
  Ag      0.000000      0.000000      1.276048
  Ag      0.000000      0.000000     -1.276048
