3
Coordinates from ORCA-job Ag03N0_D3H E -440.837294949670
  Ag      0.000000      1.533951     -0.000000
  Ag      1.328441     -0.766976      0.000000
  Ag     -1.328441     -0.766976     -0.000000
3
Coordinates from ORCA-job Ag03N0_D3H E -440.837533011253
  Ag     -0.000000      1.539521      0.000000
  Ag      1.325459     -0.769761      0.000000
  Ag     -1.325458     -0.769761      0.000000
3
Coordinates from ORCA-job Ag03N0_D3H E -440.839178322423
  Ag     -0.000001      1.610567      0.000000
  Ag      1.286439     -0.805285      0.000000
  Ag     -1.286438     -0.805284      0.000000
3
Coordinates from ORCA-job Ag03N0_D3H E -440.839200098098
  Ag     -0.000001      1.617686      0.000000
  Ag      1.283156     -0.808844      0.000000
  Ag     -1.283155     -0.808843      0.000000
3
Coordinates from ORCA-job Ag03N0_D3H E -440.839207911769
  Ag     -0.000001      1.619750      0.000000
  Ag      1.283026     -0.809876      0.000000
  Ag     -1.283025     -0.809875      0.000000
3
Coordinates from ORCA-job Ag03N0_D3H E -440.839233726671
  Ag     -0.000001      1.625954      0.000000
  Ag      1.284900     -0.812978      0.000000
  Ag     -1.284899     -0.812977      0.000000
3
Coordinates from ORCA-job Ag03N0_D3H E -440.839241120396
  Ag     -0.000001      1.626939      0.000000
  Ag      1.287128     -0.813471      0.000000
  Ag     -1.287127     -0.813469      0.000000
3
Coordinates from ORCA-job Ag03N0_D3H E -440.839242124066
  Ag     -0.000001      1.626078      0.000000
  Ag      1.288325     -0.813041      0.000000
  Ag     -1.288324     -0.813039      0.000000
3
Coordinates from ORCA-job Ag03N0_D3H E -440.839241926903
  Ag     -0.000001      1.625639      0.000000
  Ag      1.288499     -0.812821      0.000000
  Ag     -1.288498     -0.812819      0.000000
