3
Coordinates from ORCA-job Ag03C1_D3H E -440.629781022654
  Ag      0.000000      1.529877      0.000000
  Ag      1.324912     -0.764938      0.000000
  Ag     -1.324912     -0.764938      0.000000
3
Coordinates from ORCA-job Ag03C1_D3H E -440.629795910371
  Ag     -0.000000      1.530778      0.000000
  Ag      1.325581     -0.765389      0.000000
  Ag     -1.325581     -0.765389      0.000000
3
Coordinates from ORCA-job Ag03C1_D3H E -440.629892742885
  Ag     -0.000000      1.541496      0.000000
  Ag      1.333517     -0.770747      0.000000
  Ag     -1.333517     -0.770747      0.000000
3
Coordinates from ORCA-job Ag03C1_D3H E -440.629893739808
  Ag     -0.000000      1.541992      0.000000
  Ag      1.333867     -0.770995      0.000000
  Ag     -1.333867     -0.770995      0.000000
