3
Coordinates from ORCA-job Ag03N0_LIN E -440.835218299563
  Ag      0.000000      0.000000      0.000000
  Ag      0.000000      0.000000      2.592532
  Ag      0.000000      0.000000     -2.592532
3
Coordinates from ORCA-job Ag03N0_LIN E -440.835231760672
  Ag      0.000000     -0.000000      0.000000
  Ag     -0.000000      0.000000      2.594116
  Ag     -0.000000      0.000000     -2.594116
3
Coordinates from ORCA-job Ag03N0_LIN E -440.835315671431
  Ag     -0.000000     -0.000000     -0.000000
  Ag      0.000000      0.000000      2.613518
  Ag      0.000000      0.000000     -2.613518
3
Coordinates from ORCA-job Ag03N0_LIN E -440.835316128648
  Ag     -0.000000     -0.000000     -0.000000
  Ag      0.000000      0.000000      2.614566
  Ag      0.000000      0.000000     -2.614566
