2
Coordinates from ORCA-job Au01N0_H E -136.293170489956
  Au      0.000000      0.000000      0.019034
  H       0.000000      0.000000     -1.503691
2
Coordinates from ORCA-job Au01N0_H E -136.293151470661
  Au      0.000000      0.000000      0.038094
  H       0.000000      0.000000     -1.522751
2
Coordinates from ORCA-job Au01N0_H E -136.293283234457
  Au      0.000000      0.000000      0.029269
  H       0.000000      0.000000     -1.513926
2
Coordinates from ORCA-job Au01N0_H E -136.293284507204
  Au      0.000000      0.000000      0.028790
  H       0.000000      0.000000     -1.513447
2
Coordinates from ORCA-job Au01N0_H E -136.293284461673
  Au      0.000000      0.000000      0.028812
  H       0.000000      0.000000     -1.513469
