2
Coordinates from ORCA-job Au01N0_F E -235.564407274306
  Au      0.000000      0.000000      0.196853
  F       0.000000      0.000000     -1.727931
2
Coordinates from ORCA-job Au01N0_F E -235.564418046203
  Au      0.000000      0.000000      0.210778
  F       0.000000      0.000000     -1.741856
2
Coordinates from ORCA-job Au01N0_F E -235.564477942776
  Au      0.000000      0.000000      0.204316
  F       0.000000      0.000000     -1.735394
2
Coordinates from ORCA-job Au01N0_F E -235.564478065450
  Au      0.000000      0.000000      0.204032
  F       0.000000      0.000000     -1.735110
2
Coordinates from ORCA-job Au01N0_F E -235.564478066911
  Au      0.000000      0.000000      0.204042
  F       0.000000      0.000000     -1.735120
