2
Coordinates from ORCA-job Au02N0 E -271.431999104336
  Au      0.000000      0.000000      1.239541
  Au      0.000000      0.000000     -1.239541
2
Coordinates from ORCA-job Au02N0 E -271.429450212914
  Au      0.000000      0.000000      1.318918
  Au      0.000000      0.000000     -1.318918
2
Coordinates from ORCA-job Au02N0 E -271.432139917430
  Au      0.000000      0.000000      1.265162
  Au      0.000000      0.000000     -1.265162
2
Coordinates from ORCA-job Au02N0 E -271.432218389265
  Au      0.000000      0.000000      1.254190
  Au      0.000000      0.000000     -1.254190
2
Coordinates from ORCA-job Au02N0 E -271.432216474134
  Au      0.000000      0.000000      1.257164
  Au      0.000000      0.000000     -1.257164
2
Coordinates from ORCA-job Au02N0 E -271.432216822688
  Au      0.000000      0.000000      1.257051
  Au      0.000000      0.000000     -1.257051
