3
Coordinates from ORCA-job Au03N0_D3H E -407.151533047407
  Au      0.000000      1.515176     -0.000000
  Au      1.312181     -0.757588      0.000000
  Au     -1.312181     -0.757588     -0.000000
3
Coordinates from ORCA-job Au03N0_D3H E -407.153615108825
  Au      0.000002      1.602700      0.000000
  Au      1.293730     -0.801348      0.000000
  Au     -1.293732     -0.801352      0.000000
3
Coordinates from ORCA-job Au03N0_D3H E -407.152798516104
  Au      0.000014      1.599114      0.000000
  Au      1.248531     -0.799544      0.000000
  Au     -1.248545     -0.799570      0.000000
3
Coordinates from ORCA-job Au03N0_D3H E -407.153738470530
  Au      0.000016      1.592395      0.000000
  Au      1.286067     -0.796182      0.000000
  Au     -1.286082     -0.796212      0.000000
3
Coordinates from ORCA-job Au03N0_D3H E -407.153739779984
  Au      0.000029      1.591552      0.000000
  Au      1.285808     -0.795749      0.000000
  Au     -1.285837     -0.795803      0.000000
