3
Coordinates from ORCA-job Au03C1_LIN E -406.836214815321
  Au      0.000000      0.000000      0.000000
  Au      0.000000      0.000000      2.576864
  Au      0.000000      0.000000     -2.576864
3
Coordinates from ORCA-job Au03C1_LIN E -406.834738666950
  Au     -0.000000     -0.000000      0.000000
  Au      0.000000      0.000000      2.671660
  Au      0.000000      0.000000     -2.671661
3
Coordinates from ORCA-job Au03C1_LIN E -406.836255703110
  Au     -0.000000      0.000000      0.000001
  Au      0.000000     -0.000000      2.602381
  Au      0.000000     -0.000000     -2.602382
3
Coordinates from ORCA-job Au03C1_LIN E -406.836282308007
  Au     -0.000000      0.000000     -0.000002
  Au      0.000000     -0.000000      2.594587
  Au      0.000000     -0.000000     -2.594585
3
Coordinates from ORCA-job Au03C1_LIN E -406.836280003756
  Au     -0.000000      0.000000      0.000005
  Au      0.000000     -0.000000      2.595976
  Au      0.000000     -0.000000     -2.595980
3
Coordinates from ORCA-job Au03C1_LIN E -406.836280097085
  Au     -0.000000      0.000000     -0.000015
  Au      0.000000     -0.000000      2.595963
  Au      0.000000     -0.000000     -2.595948
