2
Coordinates from ORCA-job Cu01N0_H E -1641.126546698212
  Cu      0.000000      0.000000      0.048513
  H       0.000000      0.000000     -1.406870
2
Coordinates from ORCA-job Cu01N0_H E -1641.126568964606
  Cu      0.000000      0.000000      0.049802
  H       0.000000      0.000000     -1.408159
2
Coordinates from ORCA-job Cu01N0_H E -1641.126624430826
  Cu      0.000000      0.000000      0.056568
  H       0.000000      0.000000     -1.414925
2
Coordinates from ORCA-job Cu01N0_H E -1641.126625135222
  Cu      0.000000      0.000000      0.056835
  H       0.000000      0.000000     -1.415192
2
Coordinates from ORCA-job Cu01N0_H E -1641.126625175972
  Cu      0.000000      0.000000      0.056842
  H       0.000000      0.000000     -1.415199
