2
Coordinates from ORCA-job Cu02N0 E -3281.114897449815
  Cu      0.000000      0.000000      1.107490
  Cu      0.000000      0.000000     -1.107490
2
Coordinates from ORCA-job Cu02N0 E -3281.114904244011
  Cu      0.000000      0.000000      1.107878
  Cu      0.000000      0.000000     -1.107878
2
Coordinates from ORCA-job Cu02N0 E -3281.115021880905
  Cu      0.000000      0.000000      1.120402
  Cu      0.000000      0.000000     -1.120402
2
Coordinates from ORCA-job Cu02N0 E -3281.115022767504
  Cu      0.000000      0.000000      1.121111
  Cu      0.000000      0.000000     -1.121111
2
Coordinates from ORCA-job Cu02N0 E -3281.115022784137
  Cu      0.000000      0.000000      1.121151
  Cu      0.000000      0.000000     -1.121151
