3
Coordinates from ORCA-job Cu03N0_LIN E -4921.675032868899
  Cu      0.000000      0.000000      0.000000
  Cu      0.000000      0.000000      2.291099
  Cu      0.000000      0.000000     -2.291099
3
Coordinates from ORCA-job Cu03N0_LIN E -4921.675034176315
  Cu     -0.000000      0.000000      0.000000
  Cu      0.000000     -0.000000      2.291353
  Cu      0.000000     -0.000000     -2.291353
3
Coordinates from ORCA-job Cu03N0_LIN E -4921.675060916687
  Cu      0.000000      0.000000      0.000000
  Cu     -0.000000     -0.000000      2.299883
  Cu     -0.000000     -0.000000     -2.299883
3
Coordinates from ORCA-job Cu03N0_LIN E -4921.675061177385
  Cu      0.000000      0.000000      0.000000
  Cu     -0.000000     -0.000000      2.300156
  Cu     -0.000000     -0.000000     -2.300156
