3
Coordinates from ORCA-job Cu03N0_D3H E -4921.686305316081
  Cu      0.000000      1.346828     -0.000000
  Cu      1.166387     -0.673414     -0.000000
  Cu     -1.166387     -0.673414     -0.000000
3
Coordinates from ORCA-job Cu03N0_D3H E -4921.686384477441
  Cu      0.000000      1.348538      0.000000
  Cu      1.165313     -0.674269      0.000000
  Cu     -1.165313     -0.674269      0.000000
3
Coordinates from ORCA-job Cu03N0_D3H E -4921.687801876071
  Cu      0.000001      1.407463      0.000000
  Cu      1.127592     -0.703731      0.000000
  Cu     -1.127592     -0.703732      0.000000
3
Coordinates from ORCA-job Cu03N0_D3H E -4921.687804488349
  Cu      0.000001      1.408538      0.000000
  Cu      1.127124     -0.704268      0.000000
  Cu     -1.127125     -0.704270      0.000000
3
Coordinates from ORCA-job Cu03N0_D3H E -4921.687812287950
  Cu      0.000001      1.411035      0.000000
  Cu      1.126647     -0.705517      0.000000
  Cu     -1.126647     -0.705518      0.000000
3
Coordinates from ORCA-job Cu03N0_D3H E -4921.687824362695
  Cu      0.000001      1.414149      0.000000
  Cu      1.127100     -0.707074      0.000000
  Cu     -1.127100     -0.707075      0.000000
3
Coordinates from ORCA-job Cu03N0_D3H E -4921.687836496750
  Cu      0.000001      1.416189      0.000000
  Cu      1.128947     -0.708094      0.000000
  Cu     -1.128948     -0.708095      0.000000
3
Coordinates from ORCA-job Cu03N0_D3H E -4921.687840839294
  Cu      0.000001      1.415846      0.000000
  Cu      1.130757     -0.707922      0.000000
  Cu     -1.130758     -0.707924      0.000000
3
Coordinates from ORCA-job Cu03N0_D3H E -4921.687841088236
  Cu      0.000001      1.414979      0.000000
  Cu      1.131386     -0.707488      0.000000
  Cu     -1.131387     -0.707490      0.000000
