3
Coordinates from ORCA-job Cu03C1_D3H E -4921.472358682079
  Cu      0.000000      1.349261     -0.000000
  Cu      1.168494     -0.674630      0.000000
  Cu     -1.168494     -0.674630     -0.000000
3
Coordinates from ORCA-job Cu03C1_D3H E -4921.472360038210
  Cu      0.000000      1.349399      0.000000
  Cu      1.168592     -0.674699      0.000000
  Cu     -1.168592     -0.674699      0.000000
3
Coordinates from ORCA-job Cu03C1_D3H E -4921.472382729769
  Cu      0.000000      1.354122      0.000000
  Cu      1.171953     -0.677060      0.000000
  Cu     -1.171953     -0.677060      0.000000
3
Coordinates from ORCA-job Cu03C1_D3H E -4921.472382892610
  Cu      0.000000      1.354188      0.000000
  Cu      1.171997     -0.677094      0.000000
  Cu     -1.171997     -0.677094      0.000000
