2
Coordinates from ORCA-job Ag01N0_H E -147.484481234708
  Ag      0.000000      0.000000      0.033547
  H       0.000000      0.000000     -1.576706
2
Coordinates from ORCA-job Ag01N0_H E -147.484501418787
  Ag      0.000000      0.000000      0.035271
  H       0.000000      0.000000     -1.578430
2
Coordinates from ORCA-job Ag01N0_H E -147.484530829467
  Ag      0.000000      0.000000      0.040933
  H       0.000000      0.000000     -1.584092
2
Coordinates from ORCA-job Ag01N0_H E -147.484530892348
  Ag      0.000000      0.000000      0.041105
  H       0.000000      0.000000     -1.584264
