2
Coordinates from ORCA-job Ag01N0_F E -246.777794408404
  Ag      0.000000      0.000000      0.317712
  F       0.000000      0.000000     -1.659163
2
Coordinates from ORCA-job Ag01N0_F E -246.777851260397
  Ag      0.000000      0.000000      0.320467
  F       0.000000      0.000000     -1.661918
2
Coordinates from ORCA-job Ag01N0_F E -246.777915456770
  Ag      0.000000      0.000000      0.327642
  F       0.000000      0.000000     -1.669093
2
Coordinates from ORCA-job Ag01N0_F E -246.777915586618
  Ag      0.000000      0.000000      0.327970
  F       0.000000      0.000000     -1.669421
2
Coordinates from ORCA-job Ag01N0_F E -246.777915589855
  Ag      0.000000      0.000000      0.327980
  F       0.000000      0.000000     -1.669431
