2
Coordinates from ORCA-job Ag02N0 E -293.858989939569
  Ag      0.000000      0.000000      1.261821
  Ag      0.000000      0.000000     -1.261821
2
Coordinates from ORCA-job Ag02N0 E -293.859036153164
  Ag      0.000000      0.000000      1.263666
  Ag      0.000000      0.000000     -1.263666
2
Coordinates from ORCA-job Ag02N0 E -293.859282574458
  Ag      0.000000      0.000000      1.282810
  Ag      0.000000      0.000000     -1.282810
2
Coordinates from ORCA-job Ag02N0 E -293.859285672119
  Ag      0.000000      0.000000      1.285052
  Ag      0.000000      0.000000     -1.285052
2
Coordinates from ORCA-job Ag02N0 E -293.859285699752
  Ag      0.000000      0.000000      1.285295
  Ag      0.000000      0.000000     -1.285295
