3
Coordinates from ORCA-job Ag03N0_LIN E -440.780031152578
  Ag      0.000000      0.000000      0.000000
  Ag      0.000000      0.000000      2.592532
  Ag      0.000000      0.000000     -2.592532
3
Coordinates from ORCA-job Ag03N0_LIN E -440.780111368199
  Ag     -0.000002     -0.000000      0.000000
  Ag      0.000001      0.000000      2.596421
  Ag      0.000001      0.000000     -2.596421
3
Coordinates from ORCA-job Ag03N0_LIN E -440.780587634344
  Ag     -0.000003     -0.000000     -0.000007
  Ag      0.000001      0.000000      2.640945
  Ag      0.000001      0.000000     -2.640939
3
Coordinates from ORCA-job Ag03N0_LIN E -440.780594253532
  Ag     -0.000003      0.000000     -0.000007
  Ag      0.000001     -0.000000      2.646463
  Ag      0.000001     -0.000000     -2.646456
3
Coordinates from ORCA-job Ag03N0_LIN E -440.780594277899
  Ag     -0.000002      0.000002     -0.000007
  Ag      0.000001     -0.000001      2.647059
  Ag      0.000001     -0.000001     -2.647052
