3
Coordinates from ORCA-job Ag03C1_D3H E -440.592687516484
  Ag      0.000000      1.529877      0.000000
  Ag      1.324912     -0.764938      0.000000
  Ag     -1.324912     -0.764938      0.000000
3
Coordinates from ORCA-job Ag03C1_D3H E -440.592805252566
  Ag     -0.000000      1.532413      0.000000
  Ag      1.326994     -0.766206      0.000000
  Ag     -1.326994     -0.766206      0.000000
3
Coordinates from ORCA-job Ag03C1_D3H E -440.593480479529
  Ag      0.000001      1.560602      0.000000
  Ag      1.350093     -0.780299      0.000000
  Ag     -1.350094     -0.780301      0.000000
3
Coordinates from ORCA-job Ag03C1_D3H E -440.593488166645
  Ag      0.000001      1.563764      0.000000
  Ag      1.352692     -0.781881      0.000000
  Ag     -1.352693     -0.781882      0.000000
3
Coordinates from ORCA-job Ag03C1_D3H E -440.593488221788
  Ag      0.000001      1.564041      0.000000
  Ag      1.352930     -0.782019      0.000000
  Ag     -1.352931     -0.782021      0.000000
