3
Coordinates from ORCA-job Ag03N0_D3H E -440.778547486299
  Ag      0.000000      1.533951     -0.000000
  Ag      1.328441     -0.766976      0.000000
  Ag     -1.328441     -0.766976     -0.000000
3
Coordinates from ORCA-job Ag03N0_D3H E -440.778984666952
  Ag      0.000001      1.541934      0.000000
  Ag      1.325988     -0.770967      0.000000
  Ag     -1.325989     -0.770968      0.000000
3
Coordinates from ORCA-job Ag03N0_D3H E -440.781818374978
  Ag      0.000002      1.629049      0.000000
  Ag      1.298480     -0.814523      0.000000
  Ag     -1.298482     -0.814527      0.000000
3
Coordinates from ORCA-job Ag03N0_D3H E -440.782066799683
  Ag      0.000003      1.658437      0.000000
  Ag      1.289530     -0.829216      0.000000
  Ag     -1.289533     -0.829222      0.000000
3
Coordinates from ORCA-job Ag03N0_D3H E -440.782089812622
  Ag      0.000003      1.667537      0.000000
  Ag      1.287627     -0.833767      0.000000
  Ag     -1.287630     -0.833771      0.000000
3
Coordinates from ORCA-job Ag03N0_D3H E -440.782100278468
  Ag      0.000003      1.671425      0.000000
  Ag      1.287830     -0.835711      0.000000
  Ag     -1.287832     -0.835715      0.000000
3
Coordinates from ORCA-job Ag03N0_D3H E -440.782119542834
  Ag      0.000002      1.676936      0.000000
  Ag      1.290237     -0.838466      0.000000
  Ag     -1.290240     -0.838470      0.000000
3
Coordinates from ORCA-job Ag03N0_D3H E -440.782129087405
  Ag      0.000003      1.677776      0.000000
  Ag      1.293304     -0.838886      0.000000
  Ag     -1.293307     -0.838891      0.000000
3
Coordinates from ORCA-job Ag03N0_D3H E -440.782131490655
  Ag      0.000003      1.675952      0.000000
  Ag      1.295094     -0.837974      0.000000
  Ag     -1.295096     -0.837978      0.000000
3
Coordinates from ORCA-job Ag03N0_D3H E -440.782131685873
  Ag      0.000003      1.674800      0.000000
  Ag      1.295419     -0.837398      0.000000
  Ag     -1.295422     -0.837403      0.000000
