2
Coordinates from ORCA-job Au01N0_H E -136.223344950876
  Au      0.000000      0.000000      0.019034
  H       0.000000      0.000000     -1.503691
2
Coordinates from ORCA-job Au01N0_H E -136.223380188679
  Au      0.000000      0.000000      0.039432
  H       0.000000      0.000000     -1.524089
2
Coordinates from ORCA-job Au01N0_H E -136.223501789872
  Au      0.000000      0.000000      0.030229
  H       0.000000      0.000000     -1.514886
2
Coordinates from ORCA-job Au01N0_H E -136.223502143548
  Au      0.000000      0.000000      0.029688
  H       0.000000      0.000000     -1.514345
2
Coordinates from ORCA-job Au01N0_H E -136.223502154267
  Au      0.000000      0.000000      0.029714
  H       0.000000      0.000000     -1.514371
