2
Coordinates from ORCA-job Au01N0_F E -235.476009430789
  Au      0.000000      0.000000      0.196853
  F       0.000000      0.000000     -1.727931
2
Coordinates from ORCA-job Au01N0_F E -235.476064895327
  Au      0.000000      0.000000      0.225308
  F       0.000000      0.000000     -1.756386
2
Coordinates from ORCA-job Au01N0_F E -235.476305971252
  Au      0.000000      0.000000      0.212499
  F       0.000000      0.000000     -1.743577
2
Coordinates from ORCA-job Au01N0_F E -235.476307323188
  Au      0.000000      0.000000      0.211420
  F       0.000000      0.000000     -1.742498
2
Coordinates from ORCA-job Au01N0_F E -235.476307336026
  Au      0.000000      0.000000      0.211489
  F       0.000000      0.000000     -1.742567
