2
Coordinates from ORCA-job Au02N0 E -271.309031402998
  Au      0.000000      0.000000      1.239541
  Au      0.000000      0.000000     -1.239541
2
Coordinates from ORCA-job Au02N0 E -271.307227536314
  Au      0.000000      0.000000      1.318918
  Au      0.000000      0.000000     -1.318918
2
Coordinates from ORCA-job Au02N0 E -271.309452163978
  Au      0.000000      0.000000      1.270611
  Au      0.000000      0.000000     -1.270611
2
Coordinates from ORCA-job Au02N0 E -271.309503467656
  Au      0.000000      0.000000      1.259778
  Au      0.000000      0.000000     -1.259778
2
Coordinates from ORCA-job Au02N0 E -271.309509062524
  Au      0.000000      0.000000      1.262440
  Au      0.000000      0.000000     -1.262440
2
Coordinates from ORCA-job Au02N0 E -271.309509066385
  Au      0.000000      0.000000      1.262334
  Au      0.000000      0.000000     -1.262334
