3
Coordinates from ORCA-job Au03N0_LIN E -406.956622187877
  Au      0.000000      0.000000      0.000000
  Au      0.000000      0.000000      2.547414
  Au      0.000000      0.000000     -2.547414
3
Coordinates from ORCA-job Au03N0_LIN E -406.956332072698
  Au      0.000001     -0.000006     -0.000004
  Au     -0.000000      0.000003      2.659671
  Au     -0.000000      0.000003     -2.659668
3
Coordinates from ORCA-job Au03N0_LIN E -406.957392857555
  Au      0.000001     -0.000006     -0.000003
  Au     -0.000001      0.000003      2.605392
  Au     -0.000001      0.000003     -2.605389
3
Coordinates from ORCA-job Au03N0_LIN E -406.957415004335
  Au      0.000003     -0.000006     -0.000001
  Au     -0.000001      0.000003      2.595201
  Au     -0.000001      0.000003     -2.595200
3
Coordinates from ORCA-job Au03N0_LIN E -406.957415782683
  Au     -0.000002     -0.000005      0.000001
  Au      0.000001      0.000002      2.596641
  Au      0.000001      0.000002     -2.596641
3
Coordinates from ORCA-job Au03N0_LIN E -406.957415766425
  Au     -0.000005     -0.000005      0.000015
  Au      0.000002      0.000003      2.596613
  Au      0.000002      0.000003     -2.596628
