3
Coordinates from ORCA-job Au03C1_LIN E -406.649142526639
  Au      0.000000      0.000000      0.000000
  Au      0.000000      0.000000      2.576864
  Au      0.000000      0.000000     -2.576864
3
Coordinates from ORCA-job Au03C1_LIN E -406.648755609849
  Au     -0.000001     -0.000013     -0.000001
  Au      0.000001      0.000006      2.689120
  Au      0.000001      0.000006     -2.689119
3
Coordinates from ORCA-job Au03C1_LIN E -406.649717885585
  Au      0.000003     -0.000018     -0.000006
  Au     -0.000001      0.000009      2.632297
  Au     -0.000001      0.000009     -2.632291
3
Coordinates from ORCA-job Au03C1_LIN E -406.649736536250
  Au     -0.000018     -0.000003      0.000024
  Au      0.000009      0.000002      2.622133
  Au      0.000009      0.000002     -2.622158
3
Coordinates from ORCA-job Au03C1_LIN E -406.649737013466
  Au     -0.000027      0.000008     -0.000062
  Au      0.000013     -0.000004      2.623614
  Au      0.000013     -0.000004     -2.623553
3
Coordinates from ORCA-job Au03C1_LIN E -406.649736983781
  Au     -0.000040      0.000010      0.000175
  Au      0.000020     -0.000005      2.623478
  Au      0.000020     -0.000005     -2.623653
