2
Coordinates from ORCA-job Cu01N0_F E -1740.297666458202
  Cu      0.000000      0.000000      0.412716
  F       0.000000      0.000000     -1.329863
2
Coordinates from ORCA-job Cu01N0_F E -1740.297756163725
  Cu      0.000000      0.000000      0.414892
  F       0.000000      0.000000     -1.332039
2
Coordinates from ORCA-job Cu01N0_F E -1740.297987301284
  Cu      0.000000      0.000000      0.426485
  F       0.000000      0.000000     -1.343632
2
Coordinates from ORCA-job Cu01N0_F E -1740.297988859320
  Cu      0.000000      0.000000      0.427474
  F       0.000000      0.000000     -1.344621
2
Coordinates from ORCA-job Cu01N0_F E -1740.297988865771
  Cu      0.000000      0.000000      0.427551
  F       0.000000      0.000000     -1.344698
