2
Coordinates from ORCA-job Cu01N0_H E -1640.991835928042
  Cu      0.000000      0.000000      0.048513
  H       0.000000      0.000000     -1.406870
2
Coordinates from ORCA-job Cu01N0_H E -1640.991885583160
  Cu      0.000000      0.000000      0.050505
  H       0.000000      0.000000     -1.408862
2
Coordinates from ORCA-job Cu01N0_H E -1640.992010642804
  Cu      0.000000      0.000000      0.061053
  H       0.000000      0.000000     -1.419410
2
Coordinates from ORCA-job Cu01N0_H E -1640.992011054803
  Cu      0.000000      0.000000      0.061675
  H       0.000000      0.000000     -1.420032
2
Coordinates from ORCA-job Cu01N0_H E -1640.992011061169
  Cu      0.000000      0.000000      0.061707
  H       0.000000      0.000000     -1.420064
