3
Coordinates from ORCA-job Cu03N0_LIN E -4921.279738767831
  Cu      0.000000      0.000000      0.000000
  Cu      0.000000      0.000000      2.291099
  Cu      0.000000      0.000000     -2.291099
3
Coordinates from ORCA-job Cu03N0_LIN E -4921.279787834174
  Cu      0.000000     -0.000000      0.000000
  Cu     -0.000000      0.000000      2.292826
  Cu     -0.000000      0.000000     -2.292826
3
Coordinates from ORCA-job Cu03N0_LIN E -4921.280589316347
  Cu     -0.000040     -0.000001      0.000003
  Cu      0.000020      0.000000      2.345432
  Cu      0.000020      0.000000     -2.345435
3
Coordinates from ORCA-job Cu03N0_LIN E -4921.280605042304
  Cu     -0.000046     -0.000001      0.000004
  Cu      0.000023      0.000000      2.353146
  Cu      0.000023      0.000000     -2.353149
3
Coordinates from ORCA-job Cu03N0_LIN E -4921.280605344653
  Cu     -0.000046     -0.000001      0.000004
  Cu      0.000023      0.000000      2.354396
  Cu      0.000023      0.000000     -2.354400
