3
Coordinates from ORCA-job Cu03C1_D3H E -4921.092243191326
  Cu      0.000000      1.349261     -0.000000
  Cu      1.168494     -0.674630      0.000000
  Cu     -1.168494     -0.674630     -0.000000
3
Coordinates from ORCA-job Cu03C1_D3H E -4921.092303542090
  Cu      0.000000      1.350249      0.000000
  Cu      1.169341     -0.675124      0.000000
  Cu     -1.169341     -0.675124      0.000000
3
Coordinates from ORCA-job Cu03C1_D3H E -4921.093332418729
  Cu      0.000003      1.380918      0.000000
  Cu      1.195604     -0.690456      0.000000
  Cu     -1.195606     -0.690461      0.000000
3
Coordinates from ORCA-job Cu03C1_D3H E -4921.093361724697
  Cu      0.000003      1.386510      0.000000
  Cu      1.200356     -0.693252      0.000000
  Cu     -1.200359     -0.693257      0.000000
3
Coordinates from ORCA-job Cu03C1_D3H E -4921.093362375014
  Cu      0.000003      1.387468      0.000000
  Cu      1.201137     -0.693731      0.000000
  Cu     -1.201140     -0.693736      0.000000
3
Coordinates from ORCA-job Cu03C1_D3H E -4921.093362389329
  Cu      0.000003      1.387522      0.000000
  Cu      1.201148     -0.693758      0.000000
  Cu     -1.201151     -0.693763      0.000000
