3
Coordinates from ORCA-job Ag03N0_LIN E -441.134353471650
  Ag      0.000000      0.000000      0.000000
  Ag      0.000000      0.000000      2.592532
  Ag      0.000000      0.000000     -2.592532
3
Coordinates from ORCA-job Ag03N0_LIN E -441.134520015880
  Ag      0.000000      0.000000     -0.000000
  Ag     -0.000000     -0.000000      2.599366
  Ag     -0.000000     -0.000000     -2.599366
3
Coordinates from ORCA-job Ag03N0_LIN E -441.135122957716
  Ag      0.000000      0.000000      0.000000
  Ag     -0.000000     -0.000000      2.672129
  Ag     -0.000000     -0.000000     -2.672130
3
Coordinates from ORCA-job Ag03N0_LIN E -441.135022577055
  Ag      0.000000      0.000000      0.000000
  Ag     -0.000000     -0.000000      2.685472
  Ag     -0.000000     -0.000000     -2.685472
3
Coordinates from ORCA-job Ag03N0_LIN E -441.135002007071
  Ag      0.000000      0.000000      0.000000
  Ag     -0.000000     -0.000000      2.687500
  Ag     -0.000000     -0.000000     -2.687500
3
Coordinates from ORCA-job Ag03N0_LIN E -441.135001439688
  Ag      0.000000      0.000000      0.000000
  Ag     -0.000000     -0.000000      2.687556
  Ag     -0.000000     -0.000000     -2.687556
