3
Coordinates from ORCA-job Ag03N0_D3H E -441.131482747722
  Ag      0.000000      1.533951     -0.000000
  Ag      1.328441     -0.766976      0.000000
  Ag     -1.328441     -0.766976     -0.000000
3
Coordinates from ORCA-job Ag03N0_D3H E -441.131996090802
  Ag     -0.000000      1.542431      0.000000
  Ag      1.329039     -0.771216      0.000000
  Ag     -1.329039     -0.771216      0.000000
3
Coordinates from ORCA-job Ag03N0_D3H E -441.134866030460
  Ag     -0.000000      1.624916      0.000000
  Ag      1.334159     -0.812459      0.000000
  Ag     -1.334159     -0.812458      0.000000
3
Coordinates from ORCA-job Ag03N0_D3H E -441.135126855838
  Ag     -0.000001      1.659705      0.000000
  Ag      1.335651     -0.829854      0.000000
  Ag     -1.335650     -0.829853      0.000000
3
Coordinates from ORCA-job Ag03N0_D3H E -441.135128696612
  Ag     -0.000001      1.677545      0.000000
  Ag      1.335794     -0.838774      0.000000
  Ag     -1.335794     -0.838773      0.000000
3
Coordinates from ORCA-job Ag03N0_D3H E -441.135128079431
  Ag     -0.000001      1.682255      0.000000
  Ag      1.335257     -0.841129      0.000000
  Ag     -1.335256     -0.841128      0.000000
3
Coordinates from ORCA-job Ag03N0_D3H E -441.135140433929
  Ag     -0.000001      1.684871      0.000000
  Ag      1.334233     -0.842436      0.000000
  Ag     -1.334232     -0.842435      0.000000
3
Coordinates from ORCA-job Ag03N0_D3H E -441.135181440565
  Ag     -0.000001      1.687791      0.000000
  Ag      1.331543     -0.843897      0.000000
  Ag     -1.331542     -0.843895      0.000000
3
Coordinates from ORCA-job Ag03N0_D3H E -441.135220746526
  Ag     -0.000001      1.687578      0.000000
  Ag      1.329353     -0.843790      0.000000
  Ag     -1.329352     -0.843789      0.000000
3
Coordinates from ORCA-job Ag03N0_D3H E -441.135238440543
  Ag     -0.000001      1.685950      0.000000
  Ag      1.328620     -0.842977      0.000000
  Ag     -1.328620     -0.842975      0.000000
3
Coordinates from ORCA-job Ag03N0_D3H E -441.135239319144
  Ag     -0.000001      1.685294      0.000000
  Ag      1.328696     -0.842648      0.000000
  Ag     -1.328695     -0.842647      0.000000
