3
Coordinates from ORCA-job Ag03C1_LIN E -440.874808354603
  Ag      0.000000      0.000000      0.000000
  Ag      0.000000      0.000000      2.629319
  Ag      0.000000      0.000000     -2.629319
3
Coordinates from ORCA-job Ag03C1_LIN E -440.874917744470
  Ag     -0.000000      0.000000     -0.000000
  Ag      0.000000     -0.000000      2.635618
  Ag      0.000000     -0.000000     -2.635618
3
Coordinates from ORCA-job Ag03C1_LIN E -440.875216423105
  Ag     -0.000000      0.000000     -0.000000
  Ag      0.000000     -0.000000      2.705554
  Ag      0.000000     -0.000000     -2.705554
3
Coordinates from ORCA-job Ag03C1_LIN E -440.875112264095
  Ag     -0.000000      0.000000     -0.000000
  Ag      0.000000     -0.000000      2.717347
  Ag      0.000000     -0.000000     -2.717347
3
Coordinates from ORCA-job Ag03C1_LIN E -440.875090883813
  Ag     -0.000000      0.000000     -0.000000
  Ag      0.000000     -0.000000      2.719306
  Ag      0.000000     -0.000000     -2.719306
3
Coordinates from ORCA-job Ag03C1_LIN E -440.875090269513
  Ag     -0.000000      0.000000     -0.000000
  Ag      0.000000     -0.000000      2.719364
  Ag      0.000000     -0.000000     -2.719364
