3
Coordinates from ORCA-job Ag03C1_D3H E -440.922255461500
  Ag      0.000000      1.529877      0.000000
  Ag      1.324912     -0.764938      0.000000
  Ag     -1.324912     -0.764938      0.000000
3
Coordinates from ORCA-job Ag03C1_D3H E -440.922551571680
  Ag      0.000000      1.534681      0.000000
  Ag      1.329017     -0.767340      0.000000
  Ag     -1.329017     -0.767340      0.000000
3
Coordinates from ORCA-job Ag03C1_D3H E -440.923590174787
  Ag      0.000000      1.581284      0.000000
  Ag      1.368650     -0.790641      0.000000
  Ag     -1.368650     -0.790642      0.000000
3
Coordinates from ORCA-job Ag03C1_D3H E -440.923388251358
  Ag      0.000000      1.593060      0.000000
  Ag      1.378564     -0.796529      0.000000
  Ag     -1.378564     -0.796529      0.000000
3
Coordinates from ORCA-job Ag03C1_D3H E -440.923319023576
  Ag      0.000000      1.595783      0.000000
  Ag      1.380803     -0.797891      0.000000
  Ag     -1.380803     -0.797891      0.000000
3
Coordinates from ORCA-job Ag03C1_D3H E -440.923315301766
  Ag      0.000000      1.595950      0.000000
  Ag      1.380892     -0.797975      0.000000
  Ag     -1.380892     -0.797975      0.000000
