2
Coordinates from ORCA-job Au01N0_H E -136.347776095111
  Au      0.000000      0.000000      0.019034
  H       0.000000      0.000000     -1.503691
2
Coordinates from ORCA-job Au01N0_H E -136.348178139699
  Au      0.000000      0.000000      0.031360
  H       0.000000      0.000000     -1.516017
2
Coordinates from ORCA-job Au01N0_H E -136.348046973707
  Au      0.000000      0.000000      0.025771
  H       0.000000      0.000000     -1.510428
2
Coordinates from ORCA-job Au01N0_H E -136.348041033730
  Au      0.000000      0.000000      0.025580
  H       0.000000      0.000000     -1.510237
2
Coordinates from ORCA-job Au01N0_H E -136.348041187519
  Au      0.000000      0.000000      0.025585
  H       0.000000      0.000000     -1.510242
