2
Coordinates from ORCA-job Au01N0_F E -235.582634825962
  Au      0.000000      0.000000      0.196853
  F       0.000000      0.000000     -1.727931
2
Coordinates from ORCA-job Au01N0_F E -235.583075397769
  Au      0.000000      0.000000      0.218856
  F       0.000000      0.000000     -1.749934
2
Coordinates from ORCA-job Au01N0_F E -235.583039344363
  Au      0.000000      0.000000      0.208961
  F       0.000000      0.000000     -1.740039
2
Coordinates from ORCA-job Au01N0_F E -235.583027291876
  Au      0.000000      0.000000      0.208271
  F       0.000000      0.000000     -1.739349
2
Coordinates from ORCA-job Au01N0_F E -235.583027961269
  Au      0.000000      0.000000      0.208308
  F       0.000000      0.000000     -1.739386
