3
Coordinates from ORCA-job Au03N0_D3H E -407.333953819202
  Au      0.000000      1.515176     -0.000000
  Au      1.312181     -0.757588      0.000000
  Au     -1.312181     -0.757588     -0.000000
3
Coordinates from ORCA-job Au03N0_D3H E -407.339205039245
  Au      0.000000      1.600679      0.000000
  Au      1.307877     -0.800340      0.000000
  Au     -1.307878     -0.800340      0.000000
3
Coordinates from ORCA-job Au03N0_D3H E -407.336604128396
  Au      0.000001      1.654939      0.000000
  Au      1.242846     -0.827469      0.000000
  Au     -1.242846     -0.827470      0.000000
3
Coordinates from ORCA-job Au03N0_D3H E -407.339823914590
  Au      0.000001      1.651774      0.000000
  Au      1.291421     -0.825886      0.000000
  Au     -1.291422     -0.825887      0.000000
3
Coordinates from ORCA-job Au03N0_D3H E -407.339794256536
  Au      0.000001      1.655358      0.000000
  Au      1.289373     -0.827678      0.000000
  Au     -1.289374     -0.827680      0.000000
3
Coordinates from ORCA-job Au03N0_D3H E -407.339782280842
  Au      0.000003      1.656398      0.000000
  Au      1.288719     -0.828196      0.000000
  Au     -1.288722     -0.828202      0.000000
