3
Coordinates from ORCA-job Au03C1_D3H E -407.088206540953
  Au      0.000000      1.501400     -0.000000
  Au      1.300251     -0.750700     -0.000000
  Au     -1.300251     -0.750700     -0.000000
3
Coordinates from ORCA-job Au03C1_D3H E -407.091626842885
  Au     -0.000000      1.554105      0.000000
  Au      1.346263     -0.777053      0.000000
  Au     -1.346263     -0.777053      0.000000
3
Coordinates from ORCA-job Au03C1_D3H E -407.091096611903
  Au     -0.000000      1.533718      0.000000
  Au      1.327325     -0.766859      0.000000
  Au     -1.327325     -0.766859      0.000000
3
Coordinates from ORCA-job Au03C1_D3H E -407.090923461445
  Au     -0.000000      1.529870      0.000000
  Au      1.325044     -0.764935      0.000000
  Au     -1.325044     -0.764935      0.000000
3
Coordinates from ORCA-job Au03C1_D3H E -407.090939054578
  Au     -0.000000      1.530637      0.000000
  Au      1.324860     -0.765319      0.000000
  Au     -1.324860     -0.765319      0.000000
3
Coordinates from ORCA-job Au03C1_D3H E -407.090941491442
  Au     -0.000000      1.530440      0.000000
  Au      1.325101     -0.765220      0.000000
  Au     -1.325101     -0.765220      0.000000
