3
Coordinates from ORCA-job Au03N0_LIN E -407.338110446464
  Au      0.000000      0.000000      0.000000
  Au      0.000000      0.000000      2.547414
  Au      0.000000      0.000000     -2.547414
3
Coordinates from ORCA-job Au03N0_LIN E -407.340550760266
  Au      0.000000      0.000000      0.000000
  Au     -0.000000     -0.000000      2.659669
  Au     -0.000000     -0.000000     -2.659669
3
Coordinates from ORCA-job Au03N0_LIN E -407.340392469545
  Au      0.000000      0.000000      0.000000
  Au     -0.000000     -0.000000      2.608016
  Au     -0.000000     -0.000000     -2.608016
3
Coordinates from ORCA-job Au03N0_LIN E -407.340204779050
  Au     -0.000000     -0.000000     -0.000000
  Au      0.000000      0.000000      2.598867
  Au      0.000000      0.000000     -2.598866
3
Coordinates from ORCA-job Au03N0_LIN E -407.340229511189
  Au     -0.000000      0.000000      0.000001
  Au      0.000000     -0.000000      2.599940
  Au      0.000000     -0.000000     -2.599941
3
Coordinates from ORCA-job Au03N0_LIN E -407.340229052647
  Au      0.000000      0.000000     -0.000003
  Au     -0.000000     -0.000000      2.599921
  Au     -0.000000     -0.000000     -2.599919
