2
Coordinates from ORCA-job Cu01N0_F E -1740.336843423339
  Cu      0.000000      0.000000      0.412716
  F       0.000000      0.000000     -1.329863
2
Coordinates from ORCA-job Cu01N0_F E -1740.336845826177
  Cu      0.000000      0.000000      0.412963
  F       0.000000      0.000000     -1.330110
2
Coordinates from ORCA-job Cu01N0_F E -1740.336855734313
  Cu      0.000000      0.000000      0.414361
  F       0.000000      0.000000     -1.331508
2
Coordinates from ORCA-job Cu01N0_F E -1740.336855792871
  Cu      0.000000      0.000000      0.414375
  F       0.000000      0.000000     -1.331522
