2
Coordinates from ORCA-job Cu02N0 E -3280.983464076090
  Cu      0.000000      0.000000      1.107490
  Cu      0.000000      0.000000     -1.107490
2
Coordinates from ORCA-job Cu02N0 E -3280.983474353862
  Cu      0.000000      0.000000      1.107832
  Cu      0.000000      0.000000     -1.107832
2
Coordinates from ORCA-job Cu02N0 E -3280.983711284770
  Cu      0.000000      0.000000      1.118288
  Cu      0.000000      0.000000     -1.118288
2
Coordinates from ORCA-job Cu02N0 E -3280.983717802239
  Cu      0.000000      0.000000      1.118712
  Cu      0.000000      0.000000     -1.118712
2
Coordinates from ORCA-job Cu02N0 E -3280.983718063348
  Cu      0.000000      0.000000      1.118729
  Cu      0.000000      0.000000     -1.118729
