3
Coordinates from ORCA-job Cu03N0_D3H E -4921.476118530584
  Cu      0.000000      1.346828     -0.000000
  Cu      1.166387     -0.673414     -0.000000
  Cu     -1.166387     -0.673414     -0.000000
3
Coordinates from ORCA-job Cu03N0_D3H E -4921.476262245134
  Cu      0.000000      1.349349      0.000000
  Cu      1.165288     -0.674675      0.000000
  Cu     -1.165288     -0.674675      0.000000
3
Coordinates from ORCA-job Cu03N0_D3H E -4921.478835406383
  Cu      0.000001      1.430785      0.000000
  Cu      1.128937     -0.715392      0.000000
  Cu     -1.128939     -0.715394      0.000000
3
Coordinates from ORCA-job Cu03N0_D3H E -4921.478877925084
  Cu      0.000001      1.445144      0.000000
  Cu      1.122699     -0.722571      0.000000
  Cu     -1.122700     -0.722573      0.000000
3
Coordinates from ORCA-job Cu03N0_D3H E -4921.478885813567
  Cu      0.000002      1.446574      0.000000
  Cu      1.122469     -0.723286      0.000000
  Cu     -1.122470     -0.723289      0.000000
3
Coordinates from ORCA-job Cu03N0_D3H E -4921.478956827196
  Cu      0.000002      1.453736      0.000000
  Cu      1.123113     -0.726867      0.000000
  Cu     -1.123115     -0.726870      0.000000
3
Coordinates from ORCA-job Cu03N0_D3H E -4921.479033741364
  Cu      0.000002      1.457416      0.000000
  Cu      1.125761     -0.728706      0.000000
  Cu     -1.125763     -0.728710      0.000000
3
Coordinates from ORCA-job Cu03N0_D3H E -4921.479096419088
  Cu      0.000002      1.457313      0.000000
  Cu      1.129200     -0.728655      0.000000
  Cu     -1.129202     -0.728659      0.000000
3
Coordinates from ORCA-job Cu03N0_D3H E -4921.479110875293
  Cu      0.000002      1.455579      0.000000
  Cu      1.130516     -0.727788      0.000000
  Cu     -1.130519     -0.727792      0.000000
3
Coordinates from ORCA-job Cu03N0_D3H E -4921.479110247179
  Cu      0.000002      1.454846      0.000000
  Cu      1.130666     -0.727421      0.000000
  Cu     -1.130669     -0.727425      0.000000
