3
Coordinates from ORCA-job Cu03C1_LIN E -4921.203518326309
  Cu      0.000000      0.000000      0.000000
  Cu      0.000000      0.000000      2.337165
  Cu      0.000000      0.000000     -2.337165
3
Coordinates from ORCA-job Cu03C1_LIN E -4921.203517316227
  Cu     -0.000000      0.000000     -0.000000
  Cu      0.000000     -0.000000      2.336539
  Cu      0.000000     -0.000000     -2.336539
3
Coordinates from ORCA-job Cu03C1_LIN E -4921.203373293600
  Cu     -0.000000     -0.000000     -0.000000
  Cu      0.000000      0.000000      2.313407
  Cu      0.000000      0.000000     -2.313407
3
Coordinates from ORCA-job Cu03C1_LIN E -4921.203388889271
  Cu     -0.000000     -0.000000     -0.000000
  Cu      0.000000      0.000000      2.314870
  Cu      0.000000      0.000000     -2.314870
3
Coordinates from ORCA-job Cu03C1_LIN E -4921.203388069995
  Cu     -0.000000     -0.000000     -0.000000
  Cu      0.000000      0.000000      2.314791
  Cu      0.000000      0.000000     -2.314791
